<?xml version="1.0" encoding="UTF-8"?>

<!-- generated on 01/14/21 17:24:34 by Eclipse SUMO duarouter Version 1.7.0
<configuration xmlns:xsi="http://www.w3.org/2001/XMLSchema-instance" xsi:noNamespaceSchemaLocation="http://sumo.dlr.de/xsd/duarouterConfiguration.xsd">

    <time>
        <begin value="0"/>
        <end value="3600"/>
    </time>

    <report>
        <no-warnings value="true"/>
        <ignore-errors value="true"/>
        <no-step-log value="true"/>
    </report>

</configuration>
-->

<routes xmlns:xsi="http://www.w3.org/2001/XMLSchema-instance" xsi:noNamespaceSchemaLocation="http://sumo.dlr.de/xsd/routes_file.xsd">
    <vType id="bike_bicycle" vClass="bicycle"/>
    <trip id="bike0" type="bike_bicycle" depart="0.00" departLane="best" from="255002540" to="-144786848#1"/>
    <trip id="bike1" type="bike_bicycle" depart="1.45" departLane="best" from="-299268501#1" to="-28022453#0"/>
    <trip id="bike3" type="bike_bicycle" depart="4.34" departLane="best" from="639129507#0" to="-171647092#1"/>
    <trip id="bike4" type="bike_bicycle" depart="5.78" departLane="best" from="-79707628#1" to="-155105717#2"/>
    <trip id="bike5" type="bike_bicycle" depart="7.23" departLane="best" from="-28011515#7" to="155768981#0"/>
    <trip id="bike6" type="bike_bicycle" depart="8.67" departLane="best" from="-145039123#1" to="-27943833#2"/>
    <trip id="bike8" type="bike_bicycle" depart="11.57" departLane="best" from="-28011577#0" to="195977382#3"/>
    <trip id="bike9" type="bike_bicycle" depart="13.01" departLane="best" from="3697915#3" to="-119926726#1"/>
    <trip id="bike11" type="bike_bicycle" depart="15.90" departLane="best" from="-47441333" to="-255005686"/>
    <trip id="bike12" type="bike_bicycle" depart="17.35" departLane="best" from="79513512#1" to="-4721521#0"/>
    <trip id="bike13" type="bike_bicycle" depart="18.79" departLane="best" from="-172065478#1" to="-184016359"/>
    <trip id="bike14" type="bike_bicycle" depart="20.24" departLane="best" from="4721447#6" to="23118342#3"/>
    <trip id="bike15" type="bike_bicycle" depart="21.69" departLane="best" from="3663341#0" to="28037773"/>
    <trip id="bike16" type="bike_bicycle" depart="23.13" departLane="best" from="163566151" to="81029039#0"/>
    <trip id="bike18" type="bike_bicycle" depart="26.02" departLane="best" from="436397936" to="248749772#6"/>
    <trip id="bike19" type="bike_bicycle" depart="27.47" departLane="best" from="4816152#4" to="187166624#7"/>
    <trip id="bike20" type="bike_bicycle" depart="28.91" departLane="best" from="27994829#8" to="-156340405#2"/>
    <trip id="bike21" type="bike_bicycle" depart="30.36" departLane="best" from="-28025140" to="-342942399#0"/>
    <trip id="bike22" type="bike_bicycle" depart="31.81" departLane="best" from="-168610800#2" to="-28028738#2"/>
    <trip id="bike23" type="bike_bicycle" depart="33.25" departLane="best" from="-187164860#3" to="-306670979"/>
    <trip id="bike24" type="bike_bicycle" depart="34.70" departLane="best" from="25491687#1" to="-616794954"/>
    <trip id="bike25" type="bike_bicycle" depart="36.14" departLane="best" from="-662310777#0" to="-279813901#1"/>
    <trip id="bike26" type="bike_bicycle" depart="37.59" departLane="best" from="-288193015#1" to="733180636"/>
    <trip id="bike27" type="bike_bicycle" depart="39.03" departLane="best" from="25884971#0" to="243047070#0"/>
    <trip id="bike29" type="bike_bicycle" depart="41.93" departLane="best" from="-261710559" to="-679297889"/>
    <trip id="bike30" type="bike_bicycle" depart="43.37" departLane="best" from="858063124" to="255005285"/>
    <trip id="bike31" type="bike_bicycle" depart="44.82" departLane="best" from="171641892" to="27942837#0"/>
    <trip id="bike33" type="bike_bicycle" depart="47.71" departLane="best" from="-28027794#0" to="-155729949#0"/>
    <trip id="bike35" type="bike_bicycle" depart="50.60" departLane="best" from="-27993919#3" to="75313247"/>
    <trip id="bike37" type="bike_bicycle" depart="53.49" departLane="best" from="262140057" to="-686732255"/>
    <trip id="bike38" type="bike_bicycle" depart="54.94" departLane="best" from="685522502" to="115559329#6"/>
    <trip id="bike39" type="bike_bicycle" depart="56.38" departLane="best" from="-282806957" to="-28038935#1"/>
    <trip id="bike40" type="bike_bicycle" depart="57.83" departLane="best" from="171750818" to="-28091024#6"/>
    <trip id="bike41" type="bike_bicycle" depart="59.27" departLane="best" from="187862236#3" to="672356125"/>
    <trip id="bike42" type="bike_bicycle" depart="60.72" departLane="best" from="-700814708#0" to="-28011532#2"/>
    <trip id="bike43" type="bike_bicycle" depart="62.17" departLane="best" from="90542365#7" to="156339504#1"/>
    <trip id="bike45" type="bike_bicycle" depart="65.06" departLane="best" from="-190432831#4" to="250134165#3"/>
    <trip id="bike46" type="bike_bicycle" depart="66.50" departLane="best" from="353267816#2" to="-79707635#1"/>
    <trip id="bike47" type="bike_bicycle" depart="67.95" departLane="best" from="-163382984#0" to="-684014247#3"/>
    <trip id="bike48" type="bike_bicycle" depart="69.39" departLane="best" from="8878462#3" to="163313151#8"/>
    <trip id="bike49" type="bike_bicycle" depart="70.84" departLane="best" from="8056012#0" to="4816177#1"/>
    <trip id="bike50" type="bike_bicycle" depart="72.29" departLane="best" from="-122066620#0" to="28025141#1"/>
    <trip id="bike51" type="bike_bicycle" depart="73.73" departLane="best" from="27931709#2" to="163566181#1"/>
    <trip id="bike52" type="bike_bicycle" depart="75.18" departLane="best" from="-288193015#0" to="255005673#1"/>
    <trip id="bike53" type="bike_bicycle" depart="76.62" departLane="best" from="-195977382#2" to="-824491853#1"/>
    <trip id="bike54" type="bike_bicycle" depart="78.07" departLane="best" from="-92024690#1" to="782983120#1"/>
    <trip id="bike55" type="bike_bicycle" depart="79.51" departLane="best" from="538971189" to="-28102058#0"/>
    <trip id="bike56" type="bike_bicycle" depart="80.96" departLane="best" from="155731670#2" to="-27605676#2"/>
    <trip id="bike57" type="bike_bicycle" depart="82.41" departLane="best" from="685056959" to="4947755#3"/>
    <trip id="bike58" type="bike_bicycle" depart="83.85" departLane="best" from="-355248658#0" to="255002547#0"/>
    <trip id="bike59" type="bike_bicycle" depart="85.30" departLane="best" from="242815109#0" to="-255005103#0"/>
    <trip id="bike60" type="bike_bicycle" depart="86.74" departLane="best" from="283119937" to="163566203#2"/>
    <trip id="bike61" type="bike_bicycle" depart="88.19" departLane="best" from="311287277#1" to="163382986"/>
    <trip id="bike62" type="bike_bicycle" depart="89.63" departLane="best" from="-100646653#1" to="-448641005#4"/>
    <trip id="bike64" type="bike_bicycle" depart="92.52" departLane="best" from="567357121#0" to="448631987"/>
    <trip id="bike65" type="bike_bicycle" depart="93.97" departLane="best" from="-37077838#0" to="-159238297"/>
    <trip id="bike67" type="bike_bicycle" depart="96.86" departLane="best" from="-171593597#2" to="145039120#3"/>
    <trip id="bike68" type="bike_bicycle" depart="98.31" departLane="best" from="-163566156#9" to="283119939#2"/>
    <trip id="bike69" type="bike_bicycle" depart="99.75" departLane="best" from="288753481" to="-243211509"/>
    <trip id="bike70" type="bike_bicycle" depart="101.20" departLane="best" from="136117085" to="169764726"/>
    <trip id="bike71" type="bike_bicycle" depart="102.64" departLane="best" from="-282806958" to="497247186#0"/>
    <trip id="bike72" type="bike_bicycle" depart="104.09" departLane="best" from="-79707637" to="-27994829#1"/>
    <trip id="bike73" type="bike_bicycle" depart="105.54" departLane="best" from="163566190" to="28037774#1"/>
    <trip id="bike74" type="bike_bicycle" depart="106.98" departLane="best" from="-27943883#0" to="-38144870#1"/>
    <trip id="bike75" type="bike_bicycle" depart="108.43" departLane="best" from="887732694" to="260900811#2"/>
    <trip id="bike76" type="bike_bicycle" depart="109.87" departLane="best" from="-826877964" to="159131964#2"/>
    <trip id="bike78" type="bike_bicycle" depart="112.76" departLane="best" from="-4721531#2" to="195773784#1"/>
    <trip id="bike79" type="bike_bicycle" depart="114.21" departLane="best" from="-28027987" to="-28011577#0"/>
    <trip id="bike81" type="bike_bicycle" depart="117.10" departLane="best" from="-28027793#1" to="673957372#1"/>
    <trip id="bike82" type="bike_bicycle" depart="118.55" departLane="best" from="4810769#5" to="-163566186#8"/>
    <trip id="bike83" type="bike_bicycle" depart="119.99" departLane="best" from="-28037924#0" to="27683077#1"/>
    <trip id="bike84" type="bike_bicycle" depart="121.44" departLane="best" from="-28008451#1" to="-248649802#0"/>
    <trip id="bike85" type="bike_bicycle" depart="122.88" departLane="best" from="732084780" to="184507807#4"/>
    <trip id="bike86" type="bike_bicycle" depart="124.33" departLane="best" from="129050193#3" to="340208064#2"/>
    <trip id="bike87" type="bike_bicycle" depart="125.78" departLane="best" from="3663345#2" to="-27931709#1"/>
    <trip id="bike88" type="bike_bicycle" depart="127.22" departLane="best" from="-184507807#1" to="-799969#1"/>
    <trip id="bike89" type="bike_bicycle" depart="128.67" departLane="best" from="-79707638#3" to="122066624#3"/>
    <trip id="bike91" type="bike_bicycle" depart="131.56" departLane="best" departSpeed="max" from="847965939" to="-184507814#2"/>
    <trip id="bike92" type="bike_bicycle" depart="133.00" departLane="best" from="-732478288#1" to="-47441314#3"/>
    <trip id="bike93" type="bike_bicycle" depart="134.45" departLane="best" from="4816152#4" to="-28038941"/>
    <trip id="bike94" type="bike_bicycle" depart="135.90" departLane="best" from="-27931340#1" to="-867158700"/>
    <trip id="bike95" type="bike_bicycle" depart="137.34" departLane="best" from="-79707628#0" to="-306673542#1"/>
    <trip id="bike96" type="bike_bicycle" depart="138.79" departLane="best" from="-28038945#1" to="686196784"/>
    <trip id="bike97" type="bike_bicycle" depart="140.23" departLane="best" from="-849373332#1" to="4816253"/>
    <trip id="bike99" type="bike_bicycle" depart="143.12" departLane="best" from="96395668" to="449260636#6"/>
    <trip id="bike101" type="bike_bicycle" depart="146.02" departLane="best" from="4721472#2" to="-262140053#7"/>
    <trip id="bike102" type="bike_bicycle" depart="147.46" departLane="best" departSpeed="max" from="145029956#0" to="-27996155#3"/>
    <trip id="bike103" type="bike_bicycle" depart="148.91" departLane="best" from="-707655056" to="-159238306"/>
    <trip id="bike104" type="bike_bicycle" depart="150.35" departLane="best" from="-677483483" to="849373337"/>
    <trip id="bike105" type="bike_bicycle" depart="151.80" departLane="best" from="-28284831#1" to="334783123#0"/>
    <trip id="bike106" type="bike_bicycle" depart="153.24" departLane="best" from="-96397280#1" to="-79707639#1"/>
    <trip id="bike107" type="bike_bicycle" depart="154.69" departLane="best" from="79513884" to="887745655#1"/>
    <trip id="bike109" type="bike_bicycle" depart="157.58" departLane="best" from="-255005678" to="-354198028#0"/>
    <trip id="bike111" type="bike_bicycle" depart="160.47" departLane="best" from="163566213#3" to="28039378#1"/>
    <trip id="bike113" type="bike_bicycle" depart="163.36" departLane="best" from="155766674#1" to="47441314#1"/>
    <trip id="bike114" type="bike_bicycle" depart="164.81" departLane="best" from="-255701617#1" to="79707634#3"/>
    <trip id="bike117" type="bike_bicycle" depart="169.15" departLane="best" from="-28037767#1" to="-215668331#2"/>
    <trip id="bike118" type="bike_bicycle" depart="170.59" departLane="best" from="627546147" to="-28038934#0"/>
    <trip id="bike119" type="bike_bicycle" depart="172.04" departLane="best" from="197713164#6" to="248991968#1"/>
    <trip id="bike120" type="bike_bicycle" depart="173.48" departLane="best" from="-79513885#0" to="190110369#1"/>
    <trip id="bike121" type="bike_bicycle" depart="174.93" departLane="best" from="159132011#2" to="726893827#1"/>
    <trip id="bike123" type="bike_bicycle" depart="177.82" departLane="best" from="-28037925#2" to="-687875021"/>
    <trip id="bike126" type="bike_bicycle" depart="182.16" departLane="best" from="-163566203#3" to="115559329#1"/>
    <trip id="bike127" type="bike_bicycle" depart="183.60" departLane="best" from="934269#1" to="8878462#3"/>
    <trip id="bike128" type="bike_bicycle" depart="185.05" departLane="best" from="-163566212#0" to="-27995769#0"/>
    <trip id="bike129" type="bike_bicycle" depart="186.50" departLane="best" from="-28284831#1" to="726879328#1"/>
    <trip id="bike131" type="bike_bicycle" depart="189.39" departLane="best" from="-64432425#0" to="-256273722#1"/>
    <trip id="bike132" type="bike_bicycle" depart="190.83" departLane="best" from="448633020#2" to="27994860#0"/>
    <trip id="bike133" type="bike_bicycle" depart="192.28" departLane="best" from="243050862#1" to="85274370#1"/>
    <trip id="bike135" type="bike_bicycle" depart="195.17" departLane="best" from="380254027#0" to="-365007658#1"/>
    <trip id="bike137" type="bike_bicycle" depart="198.06" departLane="best" from="-248753361" to="-198647720#1"/>
    <trip id="bike138" type="bike_bicycle" depart="199.51" departLane="best" from="-188051173" to="171242772#1"/>
    <trip id="bike139" type="bike_bicycle" depart="200.95" departLane="best" from="-294963702" to="232842264#2"/>
    <trip id="bike141" type="bike_bicycle" depart="203.84" departLane="best" from="254848042#1" to="-28174535#2"/>
    <trip id="bike143" type="bike_bicycle" depart="206.74" departLane="best" from="465851811" to="-171879650#2"/>
    <trip id="bike144" type="bike_bicycle" depart="208.18" departLane="best" from="-79707638#3" to="-30326839"/>
    <trip id="bike146" type="bike_bicycle" depart="211.07" departLane="best" from="25491956#1" to="-28091014"/>
    <trip id="bike147" type="bike_bicycle" depart="212.52" departLane="best" from="28038929#0" to="170232710#3"/>
    <trip id="bike148" type="bike_bicycle" depart="213.96" departLane="best" from="-79824394" to="-122066612#2"/>
    <trip id="bike150" type="bike_bicycle" depart="216.86" departLane="best" from="673273906#4" to="167121171#6"/>
    <trip id="bike152" type="bike_bicycle" depart="219.75" departLane="best" from="-254837853" to="-243048595"/>
    <trip id="bike154" type="bike_bicycle" depart="222.64" departLane="best" from="353925002" to="4816177#1"/>
    <trip id="bike155" type="bike_bicycle" depart="224.08" departLane="best" from="672356127" to="-27993917#1"/>
    <trip id="bike156" type="bike_bicycle" depart="225.53" departLane="best" from="-28038943#3" to="-187201320"/>
    <trip id="bike158" type="bike_bicycle" depart="228.42" departLane="best" from="-740984272" to="249015796#1"/>
    <trip id="bike159" type="bike_bicycle" depart="229.87" departLane="best" from="-255005677#0" to="705811430#1"/>
    <trip id="bike160" type="bike_bicycle" depart="231.31" departLane="best" from="4845307#0" to="825382103"/>
    <trip id="bike161" type="bike_bicycle" depart="232.76" departLane="best" from="3697933#4" to="611210270#0"/>
    <trip id="bike162" type="bike_bicycle" depart="234.20" departLane="best" from="-144786845#1" to="28038166"/>
    <trip id="bike163" type="bike_bicycle" depart="235.65" departLane="best" from="-458998978" to="707654223#1"/>
    <trip id="bike164" type="bike_bicycle" depart="237.10" departLane="best" from="3650028#6" to="4857542#1"/>
    <trip id="bike165" type="bike_bicycle" depart="238.54" departLane="best" from="3697933#4" to="-288277891"/>
    <trip id="bike166" type="bike_bicycle" depart="239.99" departLane="best" from="341760642#4" to="-190432813#0"/>
    <trip id="bike167" type="bike_bicycle" depart="241.43" departLane="best" from="4947758#0" to="4810769#5"/>
    <trip id="bike168" type="bike_bicycle" depart="242.88" departLane="best" from="-28020826#4" to="38144868#3"/>
    <trip id="bike170" type="bike_bicycle" depart="245.77" departLane="best" from="353898756#1" to="-28025140"/>
    <trip id="bike171" type="bike_bicycle" depart="247.22" departLane="best" from="-141627182#2" to="-27938160#5"/>
    <trip id="bike172" type="bike_bicycle" depart="248.66" departLane="best" from="-449261488#0" to="4857543#1"/>
    <trip id="bike174" type="bike_bicycle" depart="251.55" departLane="best" from="255005668#1" to="-70435780#1"/>
    <trip id="bike175" type="bike_bicycle" depart="253.00" departLane="best" from="837068442" to="163566156#9"/>
    <trip id="bike177" type="bike_bicycle" depart="255.89" departLane="best" from="799972" to="-27605676#0"/>
    <trip id="bike178" type="bike_bicycle" depart="257.33" departLane="best" from="79707640" to="-28285082#2"/>
    <trip id="bike179" type="bike_bicycle" depart="258.78" departLane="best" from="-190432817" to="-818549316"/>
    <trip id="bike180" type="bike_bicycle" depart="260.23" departLane="best" from="28028738#1" to="-398354894#2"/>
    <trip id="bike182" type="bike_bicycle" depart="263.12" departLane="best" from="-685056968#1" to="187166622#1"/>
    <trip id="bike183" type="bike_bicycle" depart="264.56" departLane="best" from="-28039382#1" to="28011515#11"/>
    <trip id="bike184" type="bike_bicycle" depart="266.01" departLane="best" from="-100872801#2" to="687929554#0"/>
    <trip id="bike185" type="bike_bicycle" depart="267.45" departLane="best" from="163566186#2" to="28025126#6"/>
    <trip id="bike187" type="bike_bicycle" depart="270.35" departLane="best" from="-615005267" to="-163566181#2"/>
    <trip id="bike188" type="bike_bicycle" depart="271.79" departLane="best" from="266869595" to="-452085542"/>
    <trip id="bike189" type="bike_bicycle" depart="273.24" departLane="best" from="-398350375" to="4721486"/>
    <trip id="bike191" type="bike_bicycle" depart="276.13" departLane="best" from="-37077851#8" to="-75313258#2"/>
    <trip id="bike192" type="bike_bicycle" depart="277.57" departLane="best" from="-732478286" to="-353916571"/>
    <trip id="bike193" type="bike_bicycle" depart="279.02" departLane="best" from="-243047070#0" to="-796274608#4"/>
    <trip id="bike194" type="bike_bicycle" depart="280.47" departLane="best" from="738034621" to="27929913#3"/>
    <trip id="bike195" type="bike_bicycle" depart="281.91" departLane="best" departSpeed="max" from="673231962" to="248030533#1"/>
    <trip id="bike196" type="bike_bicycle" depart="283.36" departLane="best" from="-3661460#2" to="169010342"/>
    <trip id="bike197" type="bike_bicycle" depart="284.80" departLane="best" from="-100646653#0" to="-333481014#0"/>
    <trip id="bike198" type="bike_bicycle" depart="286.25" departLane="best" from="-799717917" to="187373857"/>
    <trip id="bike199" type="bike_bicycle" depart="287.69" departLane="best" from="262140053#6" to="122066611#1"/>
    <trip id="bike200" type="bike_bicycle" depart="289.14" departLane="best" from="-84645926#3" to="-27996155#3"/>
    <trip id="bike202" type="bike_bicycle" depart="292.03" departLane="best" from="353919596" to="-262185705#3"/>
    <trip id="bike203" type="bike_bicycle" depart="293.48" departLane="best" from="-171242368#0" to="159131950"/>
    <trip id="bike204" type="bike_bicycle" depart="294.92" departLane="best" from="254827503#2" to="-4721498#4"/>
    <trip id="bike205" type="bike_bicycle" depart="296.37" departLane="best" from="384240362" to="28039501#5"/>
    <trip id="bike207" type="bike_bicycle" depart="299.26" departLane="best" from="-27943833#3" to="-144335321#1"/>
    <trip id="bike208" type="bike_bicycle" depart="300.71" departLane="best" from="-28038925#0" to="136467082#2"/>
    <trip id="bike209" type="bike_bicycle" depart="302.15" departLane="best" from="4721498#2" to="-163566210#0"/>
    <trip id="bike211" type="bike_bicycle" depart="305.04" departLane="best" from="-27942630#2" to="27946741"/>
    <trip id="bike212" type="bike_bicycle" depart="306.49" departLane="best" from="155105720#4" to="-28038924#0"/>
    <trip id="bike213" type="bike_bicycle" depart="307.93" departLane="best" from="262140063" to="-119868797#3"/>
    <trip id="bike214" type="bike_bicycle" depart="309.38" departLane="best" from="28039387#1" to="299268500#4"/>
    <trip id="bike216" type="bike_bicycle" depart="312.27" departLane="best" from="-269603746#1" to="79513885#9"/>
    <trip id="bike217" type="bike_bicycle" depart="313.72" departLane="best" from="159131960#4" to="-159131955#2"/>
    <trip id="bike218" type="bike_bicycle" depart="315.16" departLane="best" from="-28038943#0" to="4721498#1"/>
    <trip id="bike219" type="bike_bicycle" depart="316.61" departLane="best" from="100646668" to="3650041#3"/>
    <trip id="bike220" type="bike_bicycle" depart="318.05" departLane="best" from="27252673#1" to="85618374#0"/>
    <trip id="bike221" type="bike_bicycle" depart="319.50" departLane="best" from="198647720#0" to="778516779#1"/>
    <trip id="bike222" type="bike_bicycle" depart="320.95" departLane="best" from="633426502" to="246124645"/>
    <trip id="bike224" type="bike_bicycle" depart="323.84" departLane="best" from="448345897#1" to="169007996"/>
    <trip id="bike225" type="bike_bicycle" depart="325.28" departLane="best" from="671965445" to="28038946"/>
    <trip id="bike226" type="bike_bicycle" depart="326.73" departLane="best" from="136117076#2" to="-28059227#0"/>
    <trip id="bike227" type="bike_bicycle" depart="328.17" departLane="best" from="-28038936#10" to="255002536#2"/>
    <trip id="bike228" type="bike_bicycle" depart="329.62" departLane="best" from="288753481" to="159132008#1"/>
    <trip id="bike229" type="bike_bicycle" depart="331.07" departLane="best" from="249858360#1" to="-299268501#0"/>
    <trip id="bike230" type="bike_bicycle" depart="332.51" departLane="best" from="-165521275#0" to="-32790012#7"/>
    <trip id="bike231" type="bike_bicycle" depart="333.96" departLane="best" from="-292642931" to="-431012823"/>
    <trip id="bike232" type="bike_bicycle" depart="335.40" departLane="best" from="163566194#1" to="-249858069#2"/>
    <trip id="bike233" type="bike_bicycle" depart="336.85" departLane="best" from="-28028733#0" to="27946566#3"/>
    <trip id="bike234" type="bike_bicycle" depart="338.29" departLane="best" from="28008452#0" to="-163382988#4"/>
    <trip id="bike235" type="bike_bicycle" depart="339.74" departLane="best" from="-747480656#2" to="163566224#2"/>
    <trip id="bike236" type="bike_bicycle" depart="341.19" departLane="best" from="-781570842" to="-27946742#2"/>
    <trip id="bike237" type="bike_bicycle" depart="342.63" departLane="best" from="-796268276#0" to="673273913"/>
    <trip id="bike239" type="bike_bicycle" depart="345.52" departLane="best" from="4794840#0" to="291162154#0"/>
    <trip id="bike240" type="bike_bicycle" depart="346.97" departLane="best" from="-682058575" to="-119926723#10"/>
    <trip id="bike241" type="bike_bicycle" depart="348.41" departLane="best" from="-4947755#0" to="28059218#4"/>
    <trip id="bike242" type="bike_bicycle" depart="349.86" departLane="best" from="47441103#2" to="781830450#2"/>
    <trip id="bike243" type="bike_bicycle" depart="351.31" departLane="best" from="-79513512#1" to="28039375#0"/>
    <trip id="bike244" type="bike_bicycle" depart="352.75" departLane="best" from="165382261" to="23100865#3"/>
    <trip id="bike245" type="bike_bicycle" depart="354.20" departLane="best" from="-28011577#1" to="-28011532#3"/>
    <trip id="bike246" type="bike_bicycle" depart="355.64" departLane="best" from="-824491854#0" to="-154986397#0"/>
    <trip id="bike247" type="bike_bicycle" depart="357.09" departLane="best" from="-4721502#2" to="27930085#2"/>
    <trip id="bike249" type="bike_bicycle" depart="359.98" departLane="best" from="122066620#1" to="-243048598"/>
    <trip id="bike251" type="bike_bicycle" depart="362.87" departLane="best" from="-686196765#1" to="172067277#8"/>
    <trip id="bike253" type="bike_bicycle" depart="365.76" departLane="best" from="-249015794#0" to="119926723#8"/>
    <trip id="bike254" type="bike_bicycle" depart="367.21" departLane="best" from="-159131955#2" to="-679024768"/>
    <trip id="bike255" type="bike_bicycle" depart="368.65" departLane="best" from="-27994826#6" to="-449260636#5"/>
    <trip id="bike256" type="bike_bicycle" depart="370.10" departLane="best" from="282806958" to="-679024768"/>
    <trip id="bike257" type="bike_bicycle" depart="371.55" departLane="best" from="28039426#1" to="448633020#0"/>
    <trip id="bike258" type="bike_bicycle" depart="372.99" departLane="best" from="-28039368#0" to="-169762619#1"/>
    <trip id="bike259" type="bike_bicycle" depart="374.44" departLane="best" from="-137000988" to="163566203#3"/>
    <trip id="bike260" type="bike_bicycle" depart="375.88" departLane="best" from="96398383#1" to="-4910569#3"/>
    <trip id="bike261" type="bike_bicycle" depart="377.33" departLane="best" from="260284293" to="32790012#2"/>
    <trip id="bike262" type="bike_bicycle" depart="378.77" departLane="best" from="261710558" to="28078794#2"/>
    <trip id="bike263" type="bike_bicycle" depart="380.22" departLane="best" from="776986541#2" to="-27943846#2"/>
    <trip id="bike264" type="bike_bicycle" depart="381.67" departLane="best" from="-141271865#0" to="-255002550#0"/>
    <trip id="bike269" type="bike_bicycle" depart="388.89" departLane="best" from="28039368#1" to="-197713167#0"/>
    <trip id="bike271" type="bike_bicycle" depart="391.79" departLane="best" from="-190432812" to="-144786855#1"/>
    <trip id="bike272" type="bike_bicycle" depart="393.23" departLane="best" from="-38144868#0" to="27929913#3"/>
    <trip id="bike273" type="bike_bicycle" depart="394.68" departLane="best" from="79513885#9" to="-687929555"/>
    <trip id="bike274" type="bike_bicycle" depart="396.12" departLane="best" from="28020826#5" to="-163566238#0"/>
    <trip id="bike275" type="bike_bicycle" depart="397.57" departLane="best" from="27943846#2" to="250134165#0"/>
    <trip id="bike277" type="bike_bicycle" depart="400.46" departLane="best" from="4721502#5" to="229049094#0"/>
    <trip id="bike278" type="bike_bicycle" depart="401.91" departLane="best" from="-229049094#0" to="847965935"/>
    <trip id="bike279" type="bike_bicycle" depart="403.35" departLane="best" from="325301028" to="-4880800"/>
    <trip id="bike280" type="bike_bicycle" depart="404.80" departLane="best" from="-798782#0" to="-666724390"/>
    <trip id="bike281" type="bike_bicycle" depart="406.24" departLane="best" from="155768539#1" to="-478364359#1"/>
    <trip id="bike282" type="bike_bicycle" depart="407.69" departLane="best" from="4721498#1" to="403936562#0"/>
    <trip id="bike283" type="bike_bicycle" depart="409.13" departLane="best" from="-187804325" to="79707634#3"/>
    <trip id="bike284" type="bike_bicycle" depart="410.58" departLane="best" from="25491687#0" to="447040861#0"/>
    <trip id="bike285" type="bike_bicycle" depart="412.03" departLane="best" from="28008878#2" to="-82483336"/>
    <trip id="bike286" type="bike_bicycle" depart="413.47" departLane="best" from="28037924#2" to="79824390#2"/>
    <trip id="bike287" type="bike_bicycle" depart="414.92" departLane="best" from="-288753483#1" to="3697918#0"/>
    <trip id="bike288" type="bike_bicycle" depart="416.36" departLane="best" from="163566181#3" to="144786845#1"/>
    <trip id="bike289" type="bike_bicycle" depart="417.81" departLane="best" from="-824491853#1" to="28037846#1"/>
    <trip id="bike290" type="bike_bicycle" depart="419.25" departLane="best" from="-288564389" to="47441044#2"/>
    <trip id="bike291" type="bike_bicycle" depart="420.70" departLane="best" from="448345898#1" to="-171641894"/>
    <trip id="bike292" type="bike_bicycle" depart="422.15" departLane="best" from="592775633#1" to="-28038923#4"/>
    <trip id="bike293" type="bike_bicycle" depart="423.59" departLane="best" from="122044808#1" to="243050862#1"/>
    <trip id="bike294" type="bike_bicycle" depart="425.04" departLane="best" from="-677520425" to="-154986396#0"/>
    <trip id="bike296" type="bike_bicycle" depart="427.93" departLane="best" from="-27994829#2" to="355248658#1"/>
    <trip id="bike297" type="bike_bicycle" depart="429.37" departLane="best" from="-47441387#0" to="592735882#0"/>
    <trip id="bike300" type="bike_bicycle" depart="433.71" departLane="best" from="-171593597#1" to="28025132#3"/>
    <trip id="bike302" type="bike_bicycle" depart="436.60" departLane="best" from="27943846#2" to="256408654"/>
    <trip id="bike303" type="bike_bicycle" depart="438.05" departLane="best" from="154700686#0" to="353498841"/>
    <trip id="bike304" type="bike_bicycle" depart="439.49" departLane="best" from="-172067277#4" to="-28020820#0"/>
    <trip id="bike305" type="bike_bicycle" depart="440.94" departLane="best" from="27943878#9" to="-37077798#1"/>
    <trip id="bike306" type="bike_bicycle" depart="442.38" departLane="best" from="187373857" to="136117073"/>
    <trip id="bike307" type="bike_bicycle" depart="443.83" departLane="best" from="163382981#0" to="-79717125"/>
    <trip id="bike309" type="bike_bicycle" depart="446.72" departLane="best" from="27994824" to="-291292765"/>
    <trip id="bike311" type="bike_bicycle" depart="449.61" departLane="best" from="-27934955#0" to="-213930990"/>
    <trip id="bike312" type="bike_bicycle" depart="451.06" departLane="best" from="163383627#2" to="288277897"/>
    <trip id="bike314" type="bike_bicycle" depart="453.95" departLane="best" from="144335321#1" to="28028731#1"/>
    <trip id="bike315" type="bike_bicycle" depart="455.40" departLane="best" from="825382103" to="159238299"/>
    <trip id="bike316" type="bike_bicycle" depart="456.84" departLane="best" from="-311367710#1" to="-187164860#0"/>
    <trip id="bike317" type="bike_bicycle" depart="458.29" departLane="best" from="-27942600#4" to="-28025135#1"/>
    <trip id="bike318" type="bike_bicycle" depart="459.73" departLane="best" from="-27683075#3" to="-122110077#2"/>
    <trip id="bike319" type="bike_bicycle" depart="461.18" departLane="best" from="163383614#3" to="-299268500#2"/>