<?xml version="1.0" encoding="UTF-8"?>

<!-- generated on 01/14/21 17:24:20 by Eclipse SUMO duarouter Version 1.7.0
<configuration xmlns:xsi="http://www.w3.org/2001/XMLSchema-instance" xsi:noNamespaceSchemaLocation="http://sumo.dlr.de/xsd/duarouterConfiguration.xsd">

    <time>
        <begin value="0"/>
        <end value="3600"/>
    </time>

    <report>
        <no-warnings value="true"/>
        <ignore-errors value="true"/>
        <no-step-log value="true"/>
    </report>

</configuration>
-->

<routes xmlns:xsi="http://www.w3.org/2001/XMLSchema-instance" xsi:noNamespaceSchemaLocation="http://sumo.dlr.de/xsd/routes_file.xsd">
    <vType id="veh_passenger" vClass="passenger"/>
    <trip id="veh0" type="veh_passenger" depart="0.00" departLane="best" from="243050870#1" to="-145456123#0"/>
    <trip id="veh1" type="veh_passenger" depart="0.95" departLane="best" from="-340208064#5" to="-28027793#0"/>
    <trip id="veh2" type="veh_passenger" depart="1.91" departLane="best" from="28028738#3" to="27929296#4"/>
    <trip id="veh3" type="veh_passenger" depart="2.86" departLane="best" from="122169417#1" to="-154986396#1"/>
    <trip id="veh4" type="veh_passenger" depart="3.81" departLane="best" from="-28022454#5" to="159131999"/>
    <trip id="veh5" type="veh_passenger" depart="4.76" departLane="best" from="-154700686#2" to="-27946738#1"/>
    <trip id="veh6" type="veh_passenger" depart="5.72" departLane="best" from="24781758#5" to="167121167#2"/>
    <trip id="veh7" type="veh_passenger" depart="6.67" departLane="best" from="-28022566#1" to="185995849#2"/>
    <trip id="veh8" type="veh_passenger" depart="7.62" departLane="best" from="353926197#1" to="-119926723#10"/>
    <trip id="veh9" type="veh_passenger" depart="8.57" departLane="best" from="353468989#0" to="27946566#0"/>
    <trip id="veh10" type="veh_passenger" depart="9.53" departLane="best" from="-639837638#0" to="-24779059#2"/>
    <trip id="veh11" type="veh_passenger" depart="10.48" departLane="best" from="79716901" to="-620786548"/>
    <trip id="veh12" type="veh_passenger" depart="11.43" departLane="best" from="-167121171#3" to="-169251304#2"/>
    <trip id="veh13" type="veh_passenger" depart="12.39" departLane="best" from="448366039#0" to="195773784#1"/>
    <trip id="veh14" type="veh_passenger" depart="13.34" departLane="best" from="353898756#0" to="28026224"/>
    <trip id="veh15" type="veh_passenger" depart="14.29" departLane="best" from="163566194#3" to="818516141#1"/>
    <trip id="veh16" type="veh_passenger" depart="15.24" departLane="best" from="-834269#0" to="169764239"/>
    <trip id="veh17" type="veh_passenger" depart="16.20" departLane="best" from="37077783#5" to="200744443#5"/>
    <trip id="veh18" type="veh_passenger" depart="17.15" departLane="best" from="4721498#1" to="172963287#2"/>
    <trip id="veh20" type="veh_passenger" depart="19.06" departLane="best" from="-28028733#5" to="-3697915#0"/>
    <trip id="veh21" type="veh_passenger" depart="20.01" departLane="best" from="-163383627#2" to="-28037780#1"/>
    <trip id="veh22" type="veh_passenger" depart="20.96" departLane="best" from="-171593597#2" to="-353468982#2"/>
    <trip id="veh23" type="veh_passenger" depart="21.91" departLane="best" from="242821392#1" to="-79717036"/>
    <trip id="veh24" type="veh_passenger" depart="22.87" departLane="best" from="-798786" to="-28008881#3"/>
    <trip id="veh25" type="veh_passenger" depart="23.82" departLane="best" from="-28174535#0" to="75354227#0"/>
    <trip id="veh26" type="veh_passenger" depart="24.77" departLane="best" from="24779059#1" to="196376299#6"/>
    <trip id="veh27" type="veh_passenger" depart="25.72" departLane="best" from="-27928004#0" to="28026221#2"/>
    <trip id="veh28" type="veh_passenger" depart="26.68" departLane="best" from="-255565307#3" to="-85621304#2"/>
    <trip id="veh29" type="veh_passenger" depart="27.63" departLane="best" from="86326106#1" to="243446629#3"/>
    <trip id="veh30" type="veh_passenger" depart="28.58" departLane="best" departSpeed="max" from="169868152#0" to="27931842"/>
    <trip id="veh31" type="veh_passenger" depart="29.54" departLane="best" from="403952815#2" to="28174535#1"/>
    <trip id="veh32" type="veh_passenger" depart="30.49" departLane="best" from="-28028736#0" to="-155105717#0"/>
    <trip id="veh33" type="veh_passenger" depart="31.44" departLane="best" from="-47441333" to="-294963698#0"/>
    <trip id="veh34" type="veh_passenger" depart="32.39" departLane="best" from="-28008883" to="779160783"/>
    <trip id="veh35" type="veh_passenger" depart="33.35" departLane="best" from="481126247#1" to="-478364357#1"/>
    <trip id="veh36" type="veh_passenger" depart="34.30" departLane="best" from="250134165#3" to="119926723#1"/>
    <trip id="veh37" type="veh_passenger" depart="35.25" departLane="best" from="639819669#1" to="154700686#5"/>
    <trip id="veh38" type="veh_passenger" depart="36.21" departLane="best" from="-28091014" to="-28038946"/>
    <trip id="veh40" type="veh_passenger" depart="38.11" departLane="best" from="184507808#2" to="589896293#1"/>
    <trip id="veh41" type="veh_passenger" depart="39.06" departLane="best" from="119926723#4" to="-28022564#1"/>
    <trip id="veh42" type="veh_passenger" depart="40.02" departLane="best" from="930354#2-AddedOnRampEdge" to="159238289#0"/>
    <trip id="veh43" type="veh_passenger" depart="40.97" departLane="best" from="-163566243#0" to="-155768982#2"/>
    <trip id="veh44" type="veh_passenger" depart="41.92" departLane="best" from="-172067277#4" to="22961324#5"/>
    <trip id="veh45" type="veh_passenger" depart="42.87" departLane="best" from="341995777#0" to="136467082#1"/>
    <trip id="veh46" type="veh_passenger" depart="43.83" departLane="best" from="-159132008#1" to="-86326093#3"/>
    <trip id="veh47" type="veh_passenger" depart="44.78" departLane="best" from="90542365#6" to="163566156#3"/>
    <trip id="veh48" type="veh_passenger" depart="45.73" departLane="best" from="81027372#9" to="4721502#1"/>
    <trip id="veh49" type="veh_passenger" depart="46.69" departLane="best" from="-121202819" to="28020826#2"/>
    <trip id="veh50" type="veh_passenger" depart="47.64" departLane="best" from="27930078#3" to="163566218#5"/>
    <trip id="veh51" type="veh_passenger" depart="48.59" departLane="best" from="-28102058#2" to="246124643#2"/>
    <trip id="veh52" type="veh_passenger" depart="49.54" departLane="best" from="-172453014#0" to="148760007#3"/>
    <trip id="veh53" type="veh_passenger" depart="50.50" departLane="best" from="154695548#0" to="79707634#2"/>
    <trip id="veh54" type="veh_passenger" depart="51.45" departLane="best" from="4811225#0" to="-28082116#1"/>
    <trip id="veh55" type="veh_passenger" depart="52.40" departLane="best" from="159131934#1" to="-27930076#3"/>
    <trip id="veh56" type="veh_passenger" depart="53.36" departLane="best" from="633426502" to="4794841#2"/>
    <trip id="veh57" type="veh_passenger" depart="54.31" departLane="best" from="-383042884#2" to="243050877#1"/>
    <trip id="veh58" type="veh_passenger" depart="55.26" departLane="best" from="196371314#1" to="-243446629#1"/>
    <trip id="veh59" type="veh_passenger" depart="56.21" departLane="best" from="28039426#3" to="163566243#5"/>
    <trip id="veh60" type="veh_passenger" depart="57.17" departLane="best" from="28285549" to="163566171#0"/>
    <trip id="veh61" type="veh_passenger" depart="58.12" departLane="best" from="-100872801#3" to="-4910564#3"/>
    <trip id="veh62" type="veh_passenger" depart="59.07" departLane="best" from="-136467082#2" to="732478287"/>
    <trip id="veh63" type="veh_passenger" depart="60.02" departLane="best" from="4816289#1" to="378559843#1"/>
    <trip id="veh64" type="veh_passenger" depart="60.98" departLane="best" from="-46346750" to="-159131952#1"/>
    <trip id="veh65" type="veh_passenger" depart="61.93" departLane="best" from="4816284#0" to="783673#15"/>
    <trip id="veh66" type="veh_passenger" depart="62.88" departLane="best" from="-163566203#2" to="155998558#2"/>
    <trip id="veh67" type="veh_passenger" depart="63.84" departLane="best" from="-159238316" to="28039391#5"/>
    <trip id="veh68" type="veh_passenger" depart="64.79" departLane="best" from="28047772#1" to="-187813150"/>
    <trip id="veh69" type="veh_passenger" depart="65.74" departLane="best" from="155731249#6" to="168619031"/>
    <trip id="veh70" type="veh_passenger" depart="66.69" departLane="best" from="-28091016" to="4808622#4"/>
    <trip id="veh71" type="veh_passenger" depart="67.65" departLane="best" from="128133277" to="-28011515#10"/>
    <trip id="veh72" type="veh_passenger" depart="68.60" departLane="best" from="-27946839#1" to="-47441103#0"/>
    <trip id="veh73" type="veh_passenger" depart="69.55" departLane="best" from="90542358" to="24781760"/>
    <trip id="veh74" type="veh_passenger" depart="70.51" departLane="best" from="148760007#7" to="163382983#2"/>
    <trip id="veh75" type="veh_passenger" depart="71.46" departLane="best" from="-187164860#2" to="-28027985#0"/>
    <trip id="veh76" type="veh_passenger" depart="72.41" departLane="best" from="-616806974#1" to="184507826#0"/>
    <trip id="veh77" type="veh_passenger" depart="73.36" departLane="best" from="-28028739#2" to="-28022571#0"/>
    <trip id="veh78" type="veh_passenger" depart="74.32" departLane="best" from="-159238327#2" to="231824422#2"/>
    <trip id="veh79" type="veh_passenger" depart="75.27" departLane="best" from="-28028735#6" to="609613823"/>
    <trip id="veh80" type="veh_passenger" depart="76.22" departLane="best" from="4721469#4" to="-159257673#0"/>
    <trip id="veh81" type="veh_passenger" depart="77.17" departLane="best" from="-28038070#3" to="27605676#0"/>
    <trip id="veh82" type="veh_passenger" depart="78.13" departLane="best" from="-28011533#0" to="-196376299#4"/>
    <trip id="veh83" type="veh_passenger" depart="79.08" departLane="best" from="75313254#2" to="171879650#2"/>
    <trip id="veh84" type="veh_passenger" depart="80.03" departLane="best" from="155729948#3" to="325259845"/>
    <trip id="veh85" type="veh_passenger" depart="80.99" departLane="best" from="353913682#0" to="-27943813#0"/>
    <trip id="veh86" type="veh_passenger" depart="81.94" departLane="best" from="-169251304#1" to="145039120#3"/>
    <trip id="veh87" type="veh_passenger" depart="82.89" departLane="best" from="130296669#1" to="155105720#0"/>
    <trip id="veh88" type="veh_passenger" depart="83.84" departLane="best" from="28025132#3" to="27928387#0"/>
    <trip id="veh89" type="veh_passenger" depart="84.80" departLane="best" from="842034384#0" to="-170232710#1"/>
    <trip id="veh90" type="veh_passenger" depart="85.75" departLane="best" from="119928840" to="-647690430#0"/>
    <trip id="veh91" type="veh_passenger" depart="86.70" departLane="best" from="4721498#0" to="-28038971"/>
    <trip id="veh92" type="veh_passenger" depart="87.66" departLane="best" from="-27943785#0" to="154689121#5"/>
    <trip id="veh93" type="veh_passenger" depart="88.61" departLane="best" from="122169415" to="-353468994"/>
    <trip id="veh94" type="veh_passenger" depart="89.56" departLane="best" from="-28038972#1" to="684014247#1"/>
    <trip id="veh95" type="veh_passenger" depart="90.51" departLane="best" from="154687182#10" to="4721502#6"/>
    <trip id="veh96" type="veh_passenger" depart="91.47" departLane="best" from="167121174#2" to="-156338941#1"/>
    <trip id="veh97" type="veh_passenger" depart="92.42" departLane="best" from="96397280#1" to="396055840#0"/>
    <trip id="veh99" type="veh_passenger" depart="94.32" departLane="best" from="448366044#0" to="-27207077#1"/>
    <trip id="veh100" type="veh_passenger" depart="95.28" departLane="best" from="155768982#2" to="-28011533#1"/>
    <trip id="veh101" type="veh_passenger" depart="96.23" departLane="best" from="119926726#2" to="-159131958"/>
    <trip id="veh102" type="veh_passenger" depart="97.18" departLane="best" from="-842034384#0" to="847193371#2"/>
    <trip id="veh103" type="veh_passenger" depart="98.14" departLane="best" from="-28091024#1" to="317949606#0"/>
    <trip id="veh104" type="veh_passenger" depart="99.09" departLane="best" from="154695552#2" to="137908531#0"/>
    <trip id="veh105" type="veh_passenger" depart="100.04" departLane="best" from="79716905" to="90542365#1"/>
    <trip id="veh106" type="veh_passenger" depart="100.99" departLane="best" from="169859206#0" to="28011547#1"/>
    <trip id="veh107" type="veh_passenger" depart="101.95" departLane="best" from="-247329024#0" to="-384240362"/>
    <trip id="veh108" type="veh_passenger" depart="102.90" departLane="best" from="81027372#1" to="181919253#1"/>
    <trip id="veh109" type="veh_passenger" depart="103.85" departLane="best" from="163566243#2" to="28038923#5"/>
    <trip id="veh110" type="veh_passenger" depart="104.81" departLane="best" from="-159131943" to="184507814#5"/>
    <trip id="veh111" type="veh_passenger" depart="105.76" departLane="best" from="159131952#0" to="46256517#2"/>
    <trip id="veh112" type="veh_passenger" depart="106.71" departLane="best" from="-24781758#4" to="798779#1"/>
    <trip id="veh113" type="veh_passenger" depart="107.66" departLane="best" from="-163566150#1" to="-27942630#1"/>
    <trip id="veh114" type="veh_passenger" depart="108.62" departLane="best" from="187164860#6" to="27929143#5"/>
    <trip id="veh115" type="veh_passenger" depart="109.57" departLane="best" from="-28037925#1" to="-187164860#0"/>
    <trip id="veh116" type="veh_passenger" depart="110.52" departLane="best" from="4947755#3" to="-28038944"/>
    <trip id="veh117" type="veh_passenger" depart="111.47" departLane="best" from="187164860#5" to="206554000"/>
    <trip id="veh118" type="veh_passenger" depart="112.43" departLane="best" from="122110082#0" to="184507814#2"/>
    <trip id="veh119" type="veh_passenger" depart="113.38" departLane="best" from="163382988#5" to="75313258#1"/>
    <trip id="veh120" type="veh_passenger" depart="114.33" departLane="best" from="-27993917#1" to="28011515#11"/>
    <trip id="veh121" type="veh_passenger" depart="115.29" departLane="best" from="-28038073#1" to="119926723#1"/>
    <trip id="veh122" type="veh_passenger" depart="116.24" departLane="best" from="27927957#1" to="-403952814#0"/>
    <trip id="veh123" type="veh_passenger" depart="117.19" departLane="best" from="-47441416#1" to="28038939#5"/>
    <trip id="veh124" type="veh_passenger" depart="118.14" departLane="best" from="-163313151#2" to="154700686#3"/>
    <trip id="veh125" type="veh_passenger" depart="119.10" departLane="best" from="934269#1" to="90542365#6"/>
    <trip id="veh126" type="veh_passenger" depart="120.05" departLane="best" from="-163313151#8" to="-28011532#0"/>
    <trip id="veh127" type="veh_passenger" depart="121.00" departLane="best" from="-28091024#1" to="75313254#0"/>
    <trip id="veh128" type="veh_passenger" depart="121.96" departLane="best" from="-798779#0" to="-24781758#8"/>
    <trip id="veh130" type="veh_passenger" depart="123.86" departLane="best" from="196376299#1" to="856282420#0"/>
    <trip id="veh131" type="veh_passenger" depart="124.81" departLane="best" from="250129525#0" to="-119926723#5"/>
    <trip id="veh132" type="veh_passenger" depart="125.77" departLane="best" from="365007658#0" to="-403936562#1"/>
    <trip id="veh133" type="veh_passenger" depart="126.72" departLane="best" from="255566161#1" to="77537891#2"/>
    <trip id="veh135" type="veh_passenger" depart="128.62" departLane="best" from="-317949606#4" to="195977382#2"/>
    <trip id="veh136" type="veh_passenger" depart="129.58" departLane="best" from="28011515#4" to="-27993917#1"/>
    <trip id="veh137" type="veh_passenger" depart="130.53" departLane="best" from="242815102#2" to="-28082218"/>
    <trip id="veh138" type="veh_passenger" depart="131.48" departLane="best" from="155998556" to="609613822"/>
    <trip id="veh139" type="veh_passenger" depart="132.44" departLane="best" from="4448200#0" to="-167121171#0"/>
    <trip id="veh140" type="veh_passenger" depart="133.39" departLane="best" from="130296669#1" to="-353071427#0"/>
    <trip id="veh141" type="veh_passenger" depart="134.34" departLane="best" from="-119826653#0" to="28078794#4"/>
    <trip id="veh142" type="veh_passenger" depart="135.29" departLane="best" from="242821394#2" to="-28078795#0"/>
    <trip id="veh143" type="veh_passenger" depart="136.25" departLane="best" from="28037849#1" to="169763430"/>
    <trip id="veh144" type="veh_passenger" depart="137.20" departLane="best" from="141271792#0" to="-119926726#3"/>
    <trip id="veh146" type="veh_passenger" depart="139.11" departLane="best" from="592775633#1" to="167121167#2"/>
    <trip id="veh147" type="veh_passenger" depart="140.06" departLane="best" from="379446210" to="184507812#1"/>
    <trip id="veh148" type="veh_passenger" depart="141.01" departLane="best" from="-231824422#2" to="-187813123#0"/>
    <trip id="veh149" type="veh_passenger" depart="141.96" departLane="best" from="-468023826" to="589896295#0"/>
    <trip id="veh150" type="veh_passenger" depart="142.92" departLane="best" from="342942396#0" to="4721502#0"/>
    <trip id="veh151" type="veh_passenger" depart="143.87" departLane="best" from="589896292#1" to="-28008881#9"/>
    <trip id="veh152" type="veh_passenger" depart="144.82" departLane="best" from="-28038971" to="-171647548#2"/>
    <trip id="veh153" type="veh_passenger" depart="145.77" departLane="best" from="29460434#2" to="4910504"/>
    <trip id="veh154" type="veh_passenger" depart="146.73" departLane="best" from="121174584#3" to="213930976#0"/>
    <trip id="veh155" type="veh_passenger" depart="147.68" departLane="best" from="-246124644" to="732478288#2"/>
    <trip id="veh156" type="veh_passenger" depart="148.63" departLane="best" from="4721531#6" to="818552203#4"/>
    <trip id="veh157" type="veh_passenger" depart="149.59" departLane="best" from="-145039123#0" to="28028741#5"/>
    <trip id="veh158" type="veh_passenger" depart="150.54" departLane="best" from="-543659654" to="740757381#1"/>
    <trip id="veh159" type="veh_passenger" depart="151.49" departLane="best" from="353455893" to="47441103#0"/>
    <trip id="veh160" type="veh_passenger" depart="152.44" departLane="best" from="353941072#1" to="-288566913"/>
    <trip id="veh161" type="veh_passenger" depart="153.40" departLane="best" from="325259859#2" to="-171879646"/>
    <trip id="veh162" type="veh_passenger" depart="154.35" departLane="best" departSpeed="max" from="4794842#0" to="4721469#5"/>
    <trip id="veh163" type="veh_passenger" depart="155.30" departLane="best" from="-28025126#4" to="3650116#3"/>
    <trip id="veh164" type="veh_passenger" depart="156.25" departLane="best" from="154700686#0" to="-46346749"/>
    <trip id="veh165" type="veh_passenger" depart="157.21" departLane="best" from="342942394#0" to="-28028733#8"/>
    <trip id="veh166" type="veh_passenger" depart="158.16" departLane="best" from="-144786848#4" to="-27943881#0"/>
    <trip id="veh167" type="veh_passenger" depart="159.11" departLane="best" from="-4910569#1" to="47441103#2"/>
    <trip id="veh168" type="veh_passenger" depart="160.07" departLane="best" from="81019563#0" to="-353898756#0"/>
    <trip id="veh169" type="veh_passenger" depart="161.02" departLane="best" from="243446629#3" to="119928835#2"/>
    <trip id="veh170" type="veh_passenger" depart="161.97" departLane="best" from="828579403" to="163566213#7"/>
    <trip id="veh171" type="veh_passenger" depart="162.92" departLane="best" from="75354233#1" to="-184507812#2"/>
    <trip id="veh172" type="veh_passenger" depart="163.88" departLane="best" from="81027372#6" to="-27930076#2"/>
    <trip id="veh173" type="veh_passenger" depart="164.83" departLane="best" from="799717919" to="-28102055#0"/>
    <trip id="veh174" type="veh_passenger" depart="165.78" departLane="best" from="-171879646" to="148760007#3"/>
    <trip id="veh175" type="veh_passenger" depart="166.74" departLane="best" from="28025131" to="-47441416#0"/>
    <trip id="veh176" type="veh_passenger" depart="167.69" departLane="best" from="190432831#6" to="159238310"/>
    <trip id="veh177" type="veh_passenger" depart="168.64" departLane="best" from="-882766594#0" to="172858483#1"/>
    <trip id="veh178" type="veh_passenger" depart="169.59" departLane="best" from="-28039391#4" to="27994860#1"/>
    <trip id="veh179" type="veh_passenger" depart="170.55" departLane="best" from="-116583594#0" to="686196791#2"/>
    <trip id="veh180" type="veh_passenger" depart="171.50" departLane="best" from="163566213#1" to="28011577#4"/>
    <trip id="veh181" type="veh_passenger" depart="172.45" departLane="best" from="28037925#0" to="27927957#0"/>
    <trip id="veh182" type="veh_passenger" depart="173.40" departLane="best" from="-79707638#3" to="-159238324#1"/>
    <trip id="veh183" type="veh_passenger" depart="174.36" departLane="best" from="260284294#0" to="-550290209"/>
    <trip id="veh184" type="veh_passenger" depart="175.31" departLane="best" from="-47441103#0" to="448447730"/>
    <trip id="veh185" type="veh_passenger" depart="176.26" departLane="best" from="28011577#1" to="-403952818"/>
    <trip id="veh186" type="veh_passenger" depart="177.22" departLane="best" from="-4721447#3" to="122066609#3"/>
    <trip id="veh187" type="veh_passenger" depart="178.17" departLane="best" from="119928835#4" to="-383042884#0"/>
    <trip id="veh188" type="veh_passenger" depart="179.12" departLane="best" from="-187813119" to="128133277"/>
    <trip id="veh189" type="veh_passenger" depart="180.07" departLane="best" from="77537891#0" to="27929339"/>
    <trip id="veh190" type="veh_passenger" depart="181.03" departLane="best" from="592731130#0" to="198726454#0"/>
    <trip id="veh191" type="veh_passenger" depart="181.98" departLane="best" from="-400902603#0" to="168346696#6"/>
    <trip id="veh192" type="veh_passenger" depart="182.93" departLane="best" from="-100872801#2" to="-3663345#3"/>
    <trip id="veh193" type="veh_passenger" depart="183.89" departLane="best" from="250129529" to="154986397#4"/>
    <trip id="veh194" type="veh_passenger" depart="184.84" departLane="best" from="153673663#1-AddedOnRampEdge" to="-28011533#1"/>
    <trip id="veh195" type="veh_passenger" depart="185.79" departLane="best" from="155729949#2" to="592731130#0"/>
    <trip id="veh196" type="veh_passenger" depart="186.74" departLane="best" from="342942395#0" to="-27927965#1"/>
    <trip id="veh197" type="veh_passenger" depart="187.70" departLane="best" from="-163566192#1" to="163313151#5"/>
    <trip id="veh198" type="veh_passenger" depart="188.65" departLane="best" from="232842264#2" to="-614669116#1"/>
    <trip id="veh199" type="veh_passenger" depart="189.60" departLane="best" from="3650125" to="28038937#1"/>
    <trip id="veh200" type="veh_passenger" depart="190.55" departLane="best" from="27927998" to="-28027800#2"/>
    <trip id="veh201" type="veh_passenger" depart="191.51" departLane="best" from="-27946710#8" to="-145038301"/>
    <trip id="veh202" type="veh_passenger" depart="192.46" departLane="best" from="-28038936#5" to="155731405#6"/>
    <trip id="veh203" type="veh_passenger" depart="193.41" departLane="best" from="448620545" to="-163313151#6"/>
    <trip id="veh204" type="veh_passenger" depart="194.37" departLane="best" from="122066614#1" to="23118342#5"/>
    <trip id="veh205" type="veh_passenger" depart="195.32" departLane="best" from="156341512#1" to="-28038936#4"/>
    <trip id="veh206" type="veh_passenger" depart="196.27" departLane="best" from="250134166" to="-119868797#4"/>
    <trip id="veh207" type="veh_passenger" depart="197.22" departLane="best" from="28038936#1" to="28078736#1"/>
    <trip id="veh208" type="veh_passenger" depart="198.18" departLane="best" from="-171879633#1" to="141271792#2"/>
    <trip id="veh209" type="veh_passenger" depart="199.13" departLane="best" from="-27929307" to="79717033#0"/>
    <trip id="veh210" type="veh_passenger" depart="200.08" departLane="best" from="163313151#11" to="-156338938#0"/>
    <trip id="veh211" type="veh_passenger" depart="201.04" departLane="best" from="-28038970#0" to="448620545"/>
    <trip id="veh212" type="veh_passenger" depart="201.99" departLane="best" from="154699999#3" to="353455896"/>
    <trip id="veh213" type="veh_passenger" depart="202.94" departLane="best" from="26647715#1" to="856282420#1"/>
    <trip id="veh214" type="veh_passenger" depart="203.89" departLane="best" from="187164860#7" to="79434383#0"/>
    <trip id="veh215" type="veh_passenger" depart="204.85" departLane="best" from="4947765" to="197713168#0"/>
    <trip id="veh216" type="veh_passenger" depart="205.80" departLane="best" from="28011547#0" to="159131991"/>
    <trip id="veh217" type="veh_passenger" depart="206.75" departLane="best" from="37077809#1" to="168346696#6"/>
    <trip id="veh218" type="veh_passenger" depart="207.70" departLane="best" from="589471705#0" to="28038070#2"/>
    <trip id="veh219" type="veh_passenger" depart="208.66" departLane="best" from="155731249#12" to="-28059218#3"/>
    <trip id="veh220" type="veh_passenger" depart="209.61" departLane="best" from="-28038945#1" to="243050866#1"/>
    <trip id="veh221" type="veh_passenger" depart="210.56" departLane="best" from="28047772#1" to="163382994#6"/>
    <trip id="veh222" type="veh_passenger" depart="211.52" departLane="best" from="229076198" to="-341760642#2"/>
    <trip id="veh223" type="veh_passenger" depart="212.47" departLane="best" from="-163383614#0" to="-3662036#1"/>
    <trip id="veh224" type="veh_passenger" depart="213.42" departLane="best" from="-314372948#0" to="-4816289#3"/>
    <trip id="veh225" type="veh_passenger" depart="214.37" departLane="best" from="-28037645" to="27943878#1"/>
    <trip id="veh226" type="veh_passenger" depart="215.33" departLane="best" from="279813901#1" to="-159132015#0"/>
    <trip id="veh227" type="veh_passenger" depart="216.28" departLane="best" from="121202819" to="167120455#1"/>
    <trip id="veh228" type="veh_passenger" depart="217.23" departLane="best" from="122066623#1" to="-27996155#0"/>
    <trip id="veh229" type="veh_passenger" depart="218.19" departLane="best" from="184507807#2" to="27943883#1"/>
    <trip id="veh230" type="veh_passenger" depart="219.14" departLane="best" from="468023822" to="28047781#2"/>
    <trip id="veh231" type="veh_passenger" depart="220.09" departLane="best" from="-847193371#3" to="-119926723#0"/>
    <trip id="veh233" type="veh_passenger" depart="222.00" departLane="best" from="454356344#1" to="79707631"/>
    <trip id="veh234" type="veh_passenger" depart="222.95" departLane="best" from="122110081" to="28038923#1"/>
    <trip id="veh235" type="veh_passenger" depart="223.90" departLane="best" from="167121162#0" to="190774792"/>
    <trip id="veh236" type="veh_passenger" depart="224.85" departLane="best" from="145436384#0" to="-154980604"/>
    <trip id="veh237" type="veh_passenger" depart="225.81" departLane="best" from="-60904306" to="27929913#1"/>
    <trip id="veh238" type="veh_passenger" depart="226.76" departLane="best" from="121173999#1" to="-26647651#1"/>
    <trip id="veh239" type="veh_passenger" depart="227.71" departLane="best" from="154986397#1" to="-187813123#1"/>
    <trip id="veh240" type="veh_passenger" depart="228.67" departLane="best" from="203503669" to="-154700686#3"/>
    <trip id="veh241" type="veh_passenger" depart="229.62" departLane="best" from="116583594#3" to="171648204#1"/>
    <trip id="veh242" type="veh_passenger" depart="230.57" departLane="best" from="-154700686#3" to="246124716#0"/>
    <trip id="veh243" type="veh_passenger" depart="231.52" departLane="best" from="-197713164#5" to="154979769"/>
    <trip id="veh244" type="veh_passenger" depart="232.48" departLane="best" from="-155998759#2" to="-85621304#0"/>
    <trip id="veh245" type="veh_passenger" depart="233.43" departLane="best" from="-28008999#2" to="-4947753#1"/>
    <trip id="veh246" type="veh_passenger" depart="234.38" departLane="best" from="28039389#0" to="-85621304#0"/>
    <trip id="veh247" type="veh_passenger" depart="235.34" departLane="best" from="28038936#8" to="378959091#2"/>
    <trip id="veh248" type="veh_passenger" depart="236.29" departLane="best" from="-28039375#2" to="-163566171#0"/>
    <trip id="veh249" type="veh_passenger" depart="237.24" departLane="best" from="-136467082#1" to="163566243#5"/>
    <trip id="veh250" type="veh_passenger" depart="238.19" departLane="best" from="96398383#1" to="-732478288#5"/>
    <trip id="veh251" type="veh_passenger" depart="239.15" departLane="best" from="24781758#6" to="30264316#1"/>
    <trip id="veh252" type="veh_passenger" depart="240.10" departLane="best" from="248215545#1" to="28038960#1"/>
    <trip id="veh253" type="veh_passenger" depart="241.05" departLane="best" from="793184748" to="-27946742#0"/>
    <trip id="veh254" type="veh_passenger" depart="242.00" departLane="best" from="-141271792#1" to="-243211510#3"/>
    <trip id="veh255" type="veh_passenger" depart="242.96" departLane="best" from="-187746138#5" to="27683075#2"/>
    <trip id="veh256" type="veh_passenger" depart="243.91" departLane="best" from="171600550#3" to="-28022454#5"/>
    <trip id="veh257" type="veh_passenger" depart="244.86" departLane="best" from="27946566#3" to="28078583#0"/>
    <trip id="veh258" type="veh_passenger" depart="245.82" departLane="best" from="-27252898#0" to="196371317#2"/>
    <trip id="veh260" type="veh_passenger" depart="247.72" departLane="best" from="3662036#0" to="799964#5"/>
    <trip id="veh261" type="veh_passenger" depart="248.67" departLane="best" from="-171879642#0" to="-148994831"/>
    <trip id="veh262" type="veh_passenger" depart="249.63" departLane="best" from="-4721518" to="27929339"/>
    <trip id="veh263" type="veh_passenger" depart="250.58" departLane="best" from="79717036" to="119926723#4"/>
    <trip id="veh264" type="veh_passenger" depart="251.53" departLane="best" from="28009000" to="-163382999#2"/>
    <trip id="veh265" type="veh_passenger" depart="252.49" departLane="best" from="27943463" to="22961324#4"/>