<?xml version="1.0" encoding="UTF-8"?>

<!-- generated on 01/14/21 17:25:01 by Eclipse SUMO duarouter Version 1.7.0
<configuration xmlns:xsi="http://www.w3.org/2001/XMLSchema-instance" xsi:noNamespaceSchemaLocation="http://sumo.dlr.de/xsd/duarouterConfiguration.xsd">

    <time>
        <begin value="0"/>
        <end value="3600"/>
    </time>

    <report>
        <no-warnings value="true"/>
        <ignore-errors value="true"/>
        <no-step-log value="true"/>
    </report>

</configuration>
-->

<routes xmlns:xsi="http://www.w3.org/2001/XMLSchema-instance" xsi:noNamespaceSchemaLocation="http://sumo.dlr.de/xsd/routes_file.xsd">
    <vType id="moto_motorcycle" vClass="motorcycle"/>
    <trip id="moto0" type="moto_motorcycle" depart="0.00" departLane="best" from="-28039428" to="-28011515#4"/>
    <trip id="moto1" type="moto_motorcycle" depart="2.84" departLane="best" from="119926723#3" to="-155731249#10"/>
    <trip id="moto2" type="moto_motorcycle" depart="5.69" departLane="best" from="-163566238#3" to="-168608383#0"/>
    <trip id="moto3" type="moto_motorcycle" depart="8.53" departLane="best" from="341760642#2" to="28020826#2"/>
    <trip id="moto4" type="moto_motorcycle" depart="11.37" departLane="best" from="163383614#0" to="81021292#3"/>
    <trip id="moto5" type="moto_motorcycle" depart="14.22" departLane="best" from="-75313254#1" to="163566238#2"/>
    <trip id="moto6" type="moto_motorcycle" depart="17.06" departLane="best" from="3650041#3" to="197713164#0"/>
    <trip id="moto7" type="moto_motorcycle" depart="19.90" departLane="best" from="23118342#4" to="-64432425#1"/>
    <trip id="moto8" type="moto_motorcycle" depart="22.75" departLane="best" from="246129165#3" to="187808456#0"/>
    <trip id="moto9" type="moto_motorcycle" depart="25.59" departLane="best" from="-25491956#2" to="-75354233#0"/>
    <trip id="moto10" type="moto_motorcycle" depart="28.43" departLane="best" from="856282420#1" to="242821398#1"/>
    <trip id="moto11" type="moto_motorcycle" depart="31.28" departLane="best" from="167120455#2" to="27931649"/>
    <trip id="moto12" type="moto_motorcycle" depart="34.12" departLane="best" from="37077810" to="28039381#1"/>
    <trip id="moto13" type="moto_motorcycle" depart="36.96" departLane="best" from="-37077845" to="-28038972#1"/>
    <trip id="moto14" type="moto_motorcycle" depart="39.80" departLane="best" from="-27948100#5" to="75354227#0"/>
    <trip id="moto15" type="moto_motorcycle" depart="42.65" departLane="best" from="-28038945#0" to="-28037774#0"/>
    <trip id="moto16" type="moto_motorcycle" depart="45.49" departLane="best" from="-163566219#1" to="-156340399#0"/>
    <trip id="moto17" type="moto_motorcycle" depart="48.33" departLane="best" from="28038923#2" to="163383627#2"/>
    <trip id="moto18" type="moto_motorcycle" depart="51.18" departLane="best" from="-144786848#4" to="679601198#0"/>
    <trip id="moto19" type="moto_motorcycle" depart="54.02" departLane="best" from="-3661460#1" to="-159131991"/>
    <trip id="moto20" type="moto_motorcycle" depart="56.86" departLane="best" from="-163566192#1" to="155767478"/>
    <trip id="moto21" type="moto_motorcycle" depart="59.71" departLane="best" from="-159257673#0" to="28038166"/>
    <trip id="moto22" type="moto_motorcycle" depart="62.55" departLane="best" from="163383626#1" to="28020826#3"/>
    <trip id="moto23" type="moto_motorcycle" depart="65.39" departLane="best" from="122110102#1" to="159132016#1"/>
    <trip id="moto24" type="moto_motorcycle" depart="68.24" departLane="best" from="-47441387#1" to="172453014#0"/>
    <trip id="moto25" type="moto_motorcycle" depart="71.08" departLane="best" from="-163313151#2" to="229076198"/>
    <trip id="moto26" type="moto_motorcycle" depart="73.92" departLane="best" from="154981254#0" to="28078587#3"/>
    <trip id="moto27" type="moto_motorcycle" depart="76.77" departLane="best" from="341760642#4" to="-27942600#2"/>
    <trip id="moto28" type="moto_motorcycle" depart="79.61" departLane="best" from="28011577#8" to="27928387#0"/>
    <trip id="moto29" type="moto_motorcycle" depart="82.45" departLane="best" from="155765289#6" to="-27994826#6"/>
    <trip id="moto30" type="moto_motorcycle" depart="85.30" departLane="best" from="-818516142#1" to="-159131996#2"/>
    <trip id="moto31" type="moto_motorcycle" depart="88.14" departLane="best" from="-28038946" to="28078586"/>
    <trip id="moto32" type="moto_motorcycle" depart="90.98" departLane="best" from="-159131980" to="171932877#0"/>
    <trip id="moto33" type="moto_motorcycle" depart="93.83" departLane="best" from="-28025126#6" to="-184507807#1"/>
    <trip id="moto34" type="moto_motorcycle" depart="96.67" departLane="best" from="184058807#1" to="197713164#6"/>
    <trip id="moto35" type="moto_motorcycle" depart="99.51" departLane="best" from="118391138#0" to="171879650#0"/>
    <trip id="moto36" type="moto_motorcycle" depart="102.35" departLane="best" from="27927988#4" to="-353468982#2"/>
    <trip id="moto37" type="moto_motorcycle" depart="105.20" departLane="best" from="-37077851#5" to="28037780#0"/>
    <trip id="moto38" type="moto_motorcycle" depart="108.04" departLane="best" from="-163313156#1" to="154689110#1"/>
    <trip id="moto40" type="moto_motorcycle" depart="113.73" departLane="best" from="250129529" to="-122044806"/>
    <trip id="moto41" type="moto_motorcycle" depart="116.57" departLane="best" from="353468982#1" to="-353289877#2"/>
    <trip id="moto42" type="moto_motorcycle" depart="119.41" departLane="best" from="-196371314#0" to="-172067277#4"/>
    <trip id="moto43" type="moto_motorcycle" depart="122.26" departLane="best" from="27995769#1" to="-27946464#0"/>
    <trip id="moto44" type="moto_motorcycle" depart="125.10" departLane="best" from="378959094#0" to="-163566238#1"/>
    <trip id="moto45" type="moto_motorcycle" depart="127.94" departLane="best" from="28027793#1" to="163566230#1"/>
    <trip id="moto46" type="moto_motorcycle" depart="130.79" departLane="best" from="3663340#0" to="171879637#2"/>
    <trip id="moto47" type="moto_motorcycle" depart="133.63" departLane="best" from="-229076201#1" to="-187166624#6"/>
    <trip id="moto48" type="moto_motorcycle" depart="136.47" departLane="best" from="-366177937#1" to="4910570#1"/>
    <trip id="moto49" type="moto_motorcycle" depart="139.32" departLane="best" from="30076065#0" to="452085541"/>
    <trip id="moto50" type="moto_motorcycle" depart="142.16" departLane="best" from="4910569#1" to="-27948100#0"/>
    <trip id="moto51" type="moto_motorcycle" depart="145.00" departLane="best" from="-847193371#1" to="198474943#1"/>
    <trip id="moto52" type="moto_motorcycle" depart="147.85" departLane="best" from="-243050872" to="682060087"/>
    <trip id="moto53" type="moto_motorcycle" depart="150.69" departLane="best" from="46256517#2" to="818320887"/>
    <trip id="moto54" type="moto_motorcycle" depart="153.53" departLane="best" from="-154986397#4" to="28025124#4"/>
    <trip id="moto55" type="moto_motorcycle" depart="156.38" departLane="best" from="4721498#1" to="448366044#1"/>
    <trip id="moto56" type="moto_motorcycle" depart="159.22" departLane="best" from="154689110#2" to="-3650076#2"/>
    <trip id="moto57" type="moto_motorcycle" depart="162.06" departLane="best" from="-46346750" to="46346745#0"/>
    <trip id="moto58" type="moto_motorcycle" depart="164.90" departLane="best" from="798950#0" to="-28078587#0"/>
    <trip id="moto59" type="moto_motorcycle" depart="167.75" departLane="best" from="799969#1" to="-27929320#0"/>
    <trip id="moto60" type="moto_motorcycle" depart="170.59" departLane="best" from="28027796#1" to="27927957#3"/>
    <trip id="moto61" type="moto_motorcycle" depart="173.43" departLane="best" from="-639837639" to="-159257688"/>
    <trip id="moto62" type="moto_motorcycle" depart="176.28" departLane="best" from="-3697939" to="394589798"/>
    <trip id="moto63" type="moto_motorcycle" depart="179.12" departLane="best" from="-3663345#3" to="-856282420#3"/>
    <trip id="moto64" type="moto_motorcycle" depart="181.96" departLane="best" from="4947767#0" to="196371317#2"/>
    <trip id="moto65" type="moto_motorcycle" depart="184.81" departLane="best" from="-353469834#0" to="163566212#2"/>
    <trip id="moto66" type="moto_motorcycle" depart="187.65" departLane="best" from="-100872801#0" to="-292642931"/>
    <trip id="moto67" type="moto_motorcycle" depart="190.49" departLane="best" from="250134165#5" to="154700003"/>
    <trip id="moto68" type="moto_motorcycle" depart="193.34" departLane="best" from="136467079#4" to="-27994826#5"/>
    <trip id="moto69" type="moto_motorcycle" depart="196.18" departLane="best" from="22948406#1" to="-47441044#3"/>
    <trip id="moto70" type="moto_motorcycle" depart="199.02" departLane="best" from="27928340#1" to="-28011532#3"/>
    <trip id="moto71" type="moto_motorcycle" depart="201.87" departLane="best" from="398354894#1" to="-163382981#1"/>
    <trip id="moto72" type="moto_motorcycle" depart="204.71" departLane="best" from="-27943766#3" to="27943809#1"/>
    <trip id="moto73" type="moto_motorcycle" depart="207.55" departLane="best" from="250134167#4" to="-119926723#5"/>
    <trip id="moto74" type="moto_motorcycle" depart="210.40" departLane="best" from="28037774#1" to="28038960#0"/>
    <trip id="moto75" type="moto_motorcycle" depart="213.24" departLane="best" from="-27929143#1" to="79707635#0"/>
    <trip id="moto76" type="moto_motorcycle" depart="216.08" departLane="best" from="159132015#0" to="-159131932"/>
    <trip id="moto77" type="moto_motorcycle" depart="218.93" departLane="best" from="4845307#2" to="195773785#2"/>
    <trip id="moto78" type="moto_motorcycle" depart="221.77" departLane="best" from="-28022559#1" to="27943766#3"/>
    <trip id="moto79" type="moto_motorcycle" depart="224.61" departLane="best" from="27946710#8" to="-159238289#2"/>
    <trip id="moto80" type="moto_motorcycle" depart="227.45" departLane="best" from="119864857#0" to="513403113#1"/>
    <trip id="moto81" type="moto_motorcycle" depart="230.30" departLane="best" from="-77534588#0" to="-119926726#1"/>
    <trip id="moto82" type="moto_motorcycle" depart="233.14" departLane="best" from="403952815#0" to="79434383#0"/>
    <trip id="moto83" type="moto_motorcycle" depart="235.98" departLane="best" from="-28008881#8" to="-28008881#0"/>
    <trip id="moto84" type="moto_motorcycle" depart="238.83" departLane="best" from="122066629#2" to="-155729949#4"/>
    <trip id="moto85" type="moto_motorcycle" depart="241.67" departLane="best" from="-834267#2" to="-260900807#3"/>
    <trip id="moto86" type="moto_motorcycle" depart="244.51" departLane="best" from="-196376299#6" to="154689121#7"/>
    <trip id="moto87" type="moto_motorcycle" depart="247.36" departLane="best" from="-28037935#0" to="-163566160#0"/>
    <trip id="moto88" type="moto_motorcycle" depart="250.20" departLane="best" from="-144786848#3" to="163383627#2"/>
    <trip id="moto89" type="moto_motorcycle" depart="253.04" departLane="best" from="96398383#1" to="-4910567#5"/>
    <trip id="moto90" type="moto_motorcycle" depart="255.89" departLane="best" from="-145038300" to="-242815109#0"/>
    <trip id="moto91" type="moto_motorcycle" depart="258.73" departLane="best" from="-171647548#6" to="-155105717#4"/>
    <trip id="moto92" type="moto_motorcycle" depart="261.57" departLane="best" from="-3697918#0" to="27929296#3"/>
    <trip id="moto93" type="moto_motorcycle" depart="264.42" departLane="best" from="79707636#0" to="-799957#1"/>
    <trip id="moto94" type="moto_motorcycle" depart="267.26" departLane="best" from="400296267#1" to="184507826#0"/>
    <trip id="moto95" type="moto_motorcycle" depart="270.10" departLane="best" from="28058472" to="-490132141#0"/>
    <trip id="moto96" type="moto_motorcycle" depart="272.95" departLane="best" from="398354894#0" to="353938186#1"/>
    <trip id="moto97" type="moto_motorcycle" depart="275.79" departLane="best" from="28022559#1" to="79824395"/>
    <trip id="moto98" type="moto_motorcycle" depart="278.63" departLane="best" from="-478895562#0" to="478364360#0"/>
    <trip id="moto99" type="moto_motorcycle" depart="281.48" departLane="best" from="27943885#1" to="-28039904#0"/>
    <trip id="moto100" type="moto_motorcycle" depart="284.32" departLane="best" from="-122066617#3" to="779160786"/>
    <trip id="moto101" type="moto_motorcycle" depart="287.16" departLane="best" from="155768449#7" to="28285079#2"/>
    <trip id="moto102" type="moto_motorcycle" depart="290.00" departLane="best" from="27942667#1" to="-3650116#4"/>
    <trip id="moto103" type="moto_motorcycle" depart="292.85" departLane="best" from="27944075#5" to="-28039375#2"/>
    <trip id="moto104" type="moto_motorcycle" depart="295.69" departLane="best" from="163383001#1" to="28038923#3"/>
    <trip id="moto105" type="moto_motorcycle" depart="298.53" departLane="best" from="-27943766#1" to="-28011577#9"/>
    <trip id="moto106" type="moto_motorcycle" depart="301.38" departLane="best" from="81027372#10" to="163566243#6"/>
    <trip id="moto107" type="moto_motorcycle" depart="304.22" departLane="best" from="27943833#2" to="-187166622#0"/>
    <trip id="moto108" type="moto_motorcycle" depart="307.06" departLane="best" from="4721502#1" to="171647092#3"/>
    <trip id="moto109" type="moto_motorcycle" depart="309.91" departLane="best" from="-27930085#4" to="-159131939"/>
    <trip id="moto110" type="moto_motorcycle" depart="312.75" departLane="best" from="75313254#5" to="155729952#1"/>
    <trip id="moto112" type="moto_motorcycle" depart="318.44" departLane="best" from="169007864#0" to="-355248654"/>
    <trip id="moto113" type="moto_motorcycle" depart="321.28" departLane="best" from="882766594#1" to="-172453242#2"/>
    <trip id="moto114" type="moto_motorcycle" depart="324.12" departLane="best" from="28091024#5" to="-28011550#0"/>
    <trip id="moto115" type="moto_motorcycle" depart="326.97" departLane="best" from="136467082#1" to="448914800"/>
    <trip id="moto116" type="moto_motorcycle" depart="329.81" departLane="best" from="86326090#0" to="-365007658#0"/>
    <trip id="moto117" type="moto_motorcycle" depart="332.65" departLane="best" from="197713174#0" to="187808456#3"/>
    <trip id="moto118" type="moto_motorcycle" depart="335.50" departLane="best" from="28026221#0" to="779127914#1"/>
    <trip id="moto119" type="moto_motorcycle" depart="338.34" departLane="best" from="255565307#1" to="-246124643#6"/>
    <trip id="moto120" type="moto_motorcycle" depart="341.18" departLane="best" from="-27928341#0" to="-163382997"/>
    <trip id="moto121" type="moto_motorcycle" depart="344.03" departLane="best" from="-28022559#2" to="27946741"/>
    <trip id="moto122" type="moto_motorcycle" depart="346.87" departLane="best" from="28081598#0" to="199845589"/>
    <trip id="moto123" type="moto_motorcycle" depart="349.71" departLane="best" from="255565307#6" to="686196791#0"/>
    <trip id="moto124" type="moto_motorcycle" depart="352.55" departLane="best" from="246129165#0" to="589896292#0"/>
    <trip id="moto125" type="moto_motorcycle" depart="355.40" departLane="best" from="-30095292" to="-184507818#1"/>
    <trip id="moto126" type="moto_motorcycle" depart="358.24" departLane="best" from="27934955#3" to="27943881#0"/>
    <trip id="moto127" type="moto_motorcycle" depart="361.08" departLane="best" from="75313269#0" to="156341509#1"/>
    <trip id="moto128" type="moto_motorcycle" depart="363.93" departLane="best" from="-163566222" to="79716905"/>
    <trip id="moto129" type="moto_motorcycle" depart="366.77" departLane="best" from="-490132141#0" to="-4721523#0"/>
    <trip id="moto130" type="moto_motorcycle" depart="369.61" departLane="best" from="277919186" to="448366042#0"/>
    <trip id="moto131" type="moto_motorcycle" depart="372.46" departLane="best" from="-30076496#2" to="77537891#2"/>
    <trip id="moto132" type="moto_motorcycle" depart="375.30" departLane="best" from="353071419#3" to="163566218#4"/>
    <trip id="moto133" type="moto_motorcycle" depart="378.14" departLane="best" from="-834267#2" to="159131996#1"/>
    <trip id="moto134" type="moto_motorcycle" depart="380.99" departLane="best" from="85618372#3" to="25491687#4"/>
    <trip id="moto135" type="moto_motorcycle" depart="383.83" departLane="best" from="-27931743#0" to="-620786548"/>
    <trip id="moto136" type="moto_motorcycle" depart="386.67" departLane="best" from="28038115#3" to="-27946464#0"/>
    <trip id="moto137" type="moto_motorcycle" depart="389.52" departLane="best" from="163566213#1" to="678815703#4"/>
    <trip id="moto138" type="moto_motorcycle" depart="392.36" departLane="best" from="-184507812#0" to="81021292#3"/>
    <trip id="moto139" type="moto_motorcycle" depart="395.20" departLane="best" from="187746138#5" to="-28027989"/>
    <trip id="moto140" type="moto_motorcycle" depart="398.05" departLane="best" from="-24781758#0" to="163566222"/>
    <trip id="moto141" type="moto_motorcycle" depart="400.89" departLane="best" from="163566230#0" to="-163566243#2"/>
    <trip id="moto142" type="moto_motorcycle" depart="403.73" departLane="best" from="154689121#1" to="-172452831#3"/>
    <trip id="moto143" type="moto_motorcycle" depart="406.58" departLane="best" from="3650125" to="156340396#1"/>
    <trip id="moto144" type="moto_motorcycle" depart="409.42" departLane="best" from="163566219#1" to="-79513512#1"/>
    <trip id="moto145" type="moto_motorcycle" depart="412.26" departLane="best" from="-28082132" to="-353071427#0"/>
    <trip id="moto146" type="moto_motorcycle" depart="415.10" departLane="best" from="172067277#5" to="96395668"/>
    <trip id="moto147" type="moto_motorcycle" depart="417.95" departLane="best" from="163566224#0" to="163566186#2"/>
    <trip id="moto148" type="moto_motorcycle" depart="420.79" departLane="best" from="153213512" to="-403952814#1"/>
    <trip id="moto149" type="moto_motorcycle" depart="423.63" departLane="best" from="-27934955#0" to="27943844"/>
    <trip id="moto150" type="moto_motorcycle" depart="426.48" departLane="best" from="171593597#3" to="-28025124#0"/>
    <trip id="moto151" type="moto_motorcycle" depart="429.32" departLane="best" from="28028733#2" to="27946710#2"/>
    <trip id="moto152" type="moto_motorcycle" depart="432.16" departLane="best" from="822602731#1" to="156338938#0"/>
    <trip id="moto153" type="moto_motorcycle" depart="435.01" departLane="best" from="-155767488" to="156428064#16"/>
    <trip id="moto154" type="moto_motorcycle" depart="437.85" departLane="best" from="159257673#0" to="154687182#13"/>
    <trip id="moto155" type="moto_motorcycle" depart="440.69" departLane="best" from="250134165#5" to="-243050872"/>
    <trip id="moto156" type="moto_motorcycle" depart="443.54" departLane="best" from="403936562#1" to="448620546#0"/>
    <trip id="moto157" type="moto_motorcycle" depart="446.38" departLane="best" from="28008451#1" to="28038115#2"/>
    <trip id="moto158" type="moto_motorcycle" depart="449.22" departLane="best" from="-159238325#0" to="229076198"/>
    <trip id="moto159" type="moto_motorcycle" depart="452.07" departLane="best" from="4721502#0" to="137910011#3"/>
    <trip id="moto160" type="moto_motorcycle" depart="454.91" departLane="best" from="169859206#1" to="28285079#0"/>
    <trip id="moto161" type="moto_motorcycle" depart="457.75" departLane="best" from="4721472#1" to="197713167#1"/>
    <trip id="moto162" type="moto_motorcycle" depart="460.60" departLane="best" from="-28028733#2" to="592779841#2"/>
    <trip id="moto163" type="moto_motorcycle" depart="463.44" departLane="best" from="-200744443#6" to="154689121#3"/>
    <trip id="moto164" type="moto_motorcycle" depart="466.28" departLane="best" from="-28038071" to="-28038114"/>
    <trip id="moto165" type="moto_motorcycle" depart="469.13" departLane="best" from="4947755#3" to="27929307"/>
    <trip id="moto166" type="moto_motorcycle" depart="471.97" departLane="best" from="242815109#0" to="121040348#2"/>
    <trip id="moto167" type="moto_motorcycle" depart="474.81" departLane="best" from="-27943878#4" to="-79513885#8"/>
    <trip id="moto168" type="moto_motorcycle" depart="477.65" departLane="best" from="171594468#0" to="171647548#2"/>
    <trip id="moto169" type="moto_motorcycle" depart="480.50" departLane="best" from="-28039426#0" to="169868152#3"/>
    <trip id="moto170" type="moto_motorcycle" depart="483.34" departLane="best" from="27931709#4" to="28028733#4"/>
    <trip id="moto171" type="moto_motorcycle" depart="486.18" departLane="best" from="-156464695#2" to="187743562#1"/>
    <trip id="moto172" type="moto_motorcycle" depart="489.03" departLane="best" from="-28174535#2" to="30342903#1"/>
    <trip id="moto173" type="moto_motorcycle" depart="491.87" departLane="best" from="187743562#0" to="-4947754#6"/>
    <trip id="moto174" type="moto_motorcycle" depart="494.71" departLane="best" from="231824422#2" to="198647720#0"/>
    <trip id="moto175" type="moto_motorcycle" depart="497.56" departLane="best" from="25491865#1" to="3697918#5"/>
    <trip id="moto176" type="moto_motorcycle" depart="500.40" departLane="best" from="-647690430#1" to="28091024#9"/>
    <trip id="moto177" type="moto_motorcycle" depart="503.24" departLane="best" from="-122110077#1" to="163383616#1"/>
    <trip id="moto178" type="moto_motorcycle" depart="506.09" departLane="best" from="27928004#1" to="172025779"/>
    <trip id="moto179" type="moto_motorcycle" depart="508.93" departLane="best" from="353938183" to="75313254#2"/>
    <trip id="moto180" type="moto_motorcycle" depart="511.77" departLane="best" from="-171648201" to="-28025124#3"/>
    <trip id="moto181" type="moto_motorcycle" depart="514.62" departLane="best" from="-154986397#5" to="4810769#2"/>
    <trip id="moto182" type="moto_motorcycle" depart="517.46" departLane="best" from="168609056#1" to="613788728#0"/>
    <trip id="moto183" type="moto_motorcycle" depart="520.30" departLane="best" from="353945044" to="589896295#0"/>
    <trip id="moto184" type="moto_motorcycle" depart="523.15" departLane="best" from="-353916156#0" to="-856282420#2"/>
    <trip id="moto185" type="moto_motorcycle" depart="525.99" departLane="best" from="778516778#0" to="119826653#1"/>
    <trip id="moto186" type="moto_motorcycle" depart="528.83" departLane="best" from="-169014284#0" to="27931709#6"/>
    <trip id="moto187" type="moto_motorcycle" depart="531.68" departLane="best" from="-592693567#2" to="-799964#0"/>
    <trip id="moto188" type="moto_motorcycle" depart="534.52" departLane="best" from="184507812#2" to="-145456123#1"/>
    <trip id="moto189" type="moto_motorcycle" depart="537.36" departLane="best" from="28078794#4" to="-28028739#0"/>
    <trip id="moto190" type="moto_motorcycle" depart="540.20" departLane="best" from="-27946738#1" to="-27994860#1"/>
    <trip id="moto191" type="moto_motorcycle" depart="543.05" departLane="best" from="4721469#0" to="-468023826"/>
    <trip id="moto192" type="moto_motorcycle" depart="545.89" departLane="best" from="-171648623#0" to="156464695#2"/>
    <trip id="moto193" type="moto_motorcycle" depart="548.73" departLane="best" from="28059218#4" to="465851811"/>
    <trip id="moto194" type="moto_motorcycle" depart="551.58" departLane="best" from="155731249#1" to="-825382103"/>
    <trip id="moto195" type="moto_motorcycle" depart="554.42" departLane="best" from="589896294#1" to="-163382987#0"/>
    <trip id="moto196" type="moto_motorcycle" depart="557.26" departLane="best" from="-159238306" to="-28039470"/>
    <trip id="moto197" type="moto_motorcycle" depart="560.11" departLane="best" from="-448646979" to="8878462#3"/>
    <trip id="moto198" type="moto_motorcycle" depart="562.95" departLane="best" from="3650116#6" to="-163566243#2"/>
    <trip id="moto199" type="moto_motorcycle" depart="565.79" departLane="best" from="-168346696#6" to="28025132#4"/>
    <trip id="moto200" type="moto_motorcycle" depart="568.64" departLane="best" from="-4685244#0" to="-184507814#1"/>
    <trip id="moto201" type="moto_motorcycle" depart="571.48" departLane="best" from="-4947755#4" to="26647715#1"/>
    <trip id="moto202" type="moto_motorcycle" depart="574.32" departLane="best" from="-171648201" to="378959091#2"/>
    <trip id="moto203" type="moto_motorcycle" depart="577.17" departLane="best" from="171646127#0" to="341995775"/>
    <trip id="moto204" type="moto_motorcycle" depart="580.01" departLane="best" from="378559842#0" to="81027372#2"/>
    <trip id="moto205" type="moto_motorcycle" depart="582.85" departLane="best" from="679593645#1" to="3650076#0"/>
    <trip id="moto206" type="moto_motorcycle" depart="585.70" departLane="best" from="-818516139" to="-198729776#1"/>
    <trip id="moto207" type="moto_motorcycle" depart="588.54" departLane="best" from="22948406#2" to="-155731249#5"/>
    <trip id="moto208" type="moto_motorcycle" depart="591.38" departLane="best" from="28028735#4" to="-27994829#8"/>
    <trip id="moto209" type="moto_motorcycle" depart="594.23" departLane="best" from="-246124650" to="197713163#0"/>
    <trip id="moto210" type="moto_motorcycle" depart="597.07" departLane="best" from="27928387#1" to="-28039382#1"/>
    <trip id="moto211" type="moto_motorcycle" depart="599.91" departLane="best" from="25884971#0" to="155765294#6"/>
    <trip id="moto212" type="moto_motorcycle" depart="602.75" departLane="best" from="27929320#1" to="155767485#1"/>
    <trip id="moto213" type="moto_motorcycle" depart="605.60" departLane="best" from="-27948100#6" to="-197713164#5"/>
    <trip id="moto214" type="moto_motorcycle" depart="608.44" departLane="best" from="171647548#3" to="171646127#1"/>
    <trip id="moto215" type="moto_motorcycle" depart="611.28" departLane="best" from="-435822372#0" to="317949606#1"/>
    <trip id="moto216" type="moto_motorcycle" depart="614.13" departLane="best" from="550290209" to="-4910567#2"/>
    <trip id="moto217" type="moto_motorcycle" depart="616.97" departLane="best" from="-229049093#0" to="-27943833#2"/>
    <trip id="moto218" type="moto_motorcycle" depart="619.81" departLane="best" from="28037925#1" to="28038117"/>
    <trip id="moto219" type="moto_motorcycle" depart="622.66" departLane="best" from="145038296" to="662333621"/>
    <trip id="moto220" type="moto_motorcycle" depart="625.50" departLane="best" from="-159131973#2" to="159131943"/>
    <trip id="moto221" type="moto_motorcycle" depart="628.34" departLane="best" from="431136676#0" to="196371315#0"/>
    <trip id="moto222" type="moto_motorcycle" depart="631.19" departLane="best" from="165030176" to="28174535#0"/>
    <trip id="moto223" type="moto_motorcycle" depart="634.03" departLane="best" from="4910505" to="145039120#5"/>
    <trip id="moto224" type="moto_motorcycle" depart="636.87" departLane="best" from="342942390#0" to="248791091#1"/>
    <trip id="moto225" type="moto_motorcycle" depart="639.72" departLane="best" from="-403936562#2" to="155729944"/>
    <trip id="moto226" type="moto_motorcycle" depart="642.56" departLane="best" from="-24781758#2" to="-686196791#4"/>
    <trip id="moto227" type="moto_motorcycle" depart="645.40" departLane="best" from="-47441416#0" to="184507815#1"/>
    <trip id="moto228" type="moto_motorcycle" depart="648.25" departLane="best" from="28082155#1" to="246129165#2"/>
    <trip id="moto230" type="moto_motorcycle" depart="653.93" departLane="best" from="550963219#2" to="4721503#1"/>
    <trip id="moto231" type="moto_motorcycle" depart="656.78" departLane="best" from="-4721518" to="171879642#0"/>
    <trip id="moto232" type="moto_motorcycle" depart="659.62" departLane="best" from="732478288#0" to="-366428193#5"/>
    <trip id="moto233" type="moto_motorcycle" depart="662.46" departLane="best" from="353071419#0" to="27927957#0"/>
    <trip id="moto234" type="moto_motorcycle" depart="665.30" departLane="best" from="27931709#2" to="163313151#10"/>
    <trip id="moto235" type="moto_motorcycle" depart="668.15" departLane="best" from="-27929527#6" to="-27994829#2"/>
    <trip id="moto236" type="moto_motorcycle" depart="670.99" departLane="best" from="-169859206#0" to="28038969#1"/>
    <trip id="moto237" type="moto_motorcycle" depart="673.83" departLane="best" from="122110082#1" to="-895274770"/>
    <trip id="moto238" type="moto_motorcycle" depart="676.68" departLane="best" from="341995778#0" to="154830592#3"/>
    <trip id="moto240" type="moto_motorcycle" depart="682.36" departLane="best" from="154689121#2" to="-28081598#2"/>
    <trip id="moto241" type="moto_motorcycle" depart="685.21" departLane="best" from="4721521#0" to="165381945"/>
    <trip id="moto242" type="moto_motorcycle" depart="688.05" departLane="best" from="28038924#0" to="-28039387#0"/>
    <trip id="moto243" type="moto_motorcycle" depart="690.89" departLane="best" from="122110081" to="779127906"/>
    <trip id="moto244" type="moto_motorcycle" depart="693.74" departLane="best" from="-4910565#1" to="-155105720#4"/>
    <trip id="moto245" type="moto_motorcycle" depart="696.58" departLane="best" from="-28025135#1" to="8878462#2"/>
    <trip id="moto247" type="moto_motorcycle" depart="702.27" departLane="best" from="683333454#3" to="3697933#3"/>
    <trip id="moto248" type="moto_motorcycle" depart="705.11" departLane="best" from="-197713164#7" to="-292642931"/>
    <trip id="moto249" type="moto_motorcycle" depart="707.95" departLane="best" from="145038294" to="-119926723#3"/>
    <trip id="moto250" type="moto_motorcycle" depart="710.80" departLane="best" from="-163383626#3" to="-28038115#3"/>
    <trip id="moto251" type="moto_motorcycle" depart="713.64" departLane="best" from="28011547#1" to="163313151#9"/>
    <trip id="moto252" type="moto_motorcycle" depart="716.48" departLane="best" from="-353897405#0" to="-156340405#1"/>
    <trip id="moto253" type="moto_motorcycle" depart="719.33" departLane="best" from="154687182#10" to="-171750816#2"/>
    <trip id="moto254" type="moto_motorcycle" depart="722.17" departLane="best" from="85618374#1" to="165381362#0"/>
    <trip id="moto255" type="moto_motorcycle" depart="725.01" departLane="best" from="-4721502#2" to="-155998759#2"/>