<?xml version="1.0" encoding="UTF-8"?>

<!-- generated on 01/14/21 17:24:08 by Eclipse SUMO polyconvert Version 1.7.0
<configuration xmlns:xsi="http://www.w3.org/2001/XMLSchema-instance" xsi:noNamespaceSchemaLocation="http://sumo.dlr.de/xsd/polyconvertConfiguration.xsd">

    <input>
        <net-file value="osm.net.xml"/>
        <osm-files value="osm_bbox.osm.xml"/>
        <osm.keep-full-type value="true"/>
        <type-file value="C:\Program%20Files%20(x86)\Eclipse\Sumo\data\typemap\osmPolyconvert.typ.xml"/>
    </input>

    <output>
        <output-file value="osm.poly.xml"/>
    </output>

    <processing>
        <poi-layer-offset value="5"/>
    </processing>

    <report>
        <verbose value="true"/>
    </report>

</configuration>
-->

<additional xmlns:xsi="http://www.w3.org/2001/XMLSchema-instance" xsi:noNamespaceSchemaLocation="http://sumo.dlr.de/xsd/additional_file.xsd">
    <location netOffset="-547813.12,-5924284.72" convBoundary="-8885.05,-9898.54,5949.41,6275.67" origBoundary="-2.413989,53.376471,-2.190041,53.521461" projParameter="+proj=utm +zone=30 +ellps=WGS84 +datum=WGS84 +units=m +no_defs"/>

    <poly id="100646623" type="building.yes" color="255,230,230" fill="1" layer="-1.00" shape="2395.692245,1203.529435 2371.771485,1189.034342 2364.678448,1200.685963 2388.599169,1215.181022 2395.692245,1203.529435"/>
    <poly id="100646629" type="building.yes" color="255,230,230" fill="1" layer="-1.00" shape="2357.068233,1283.026964 2341.552854,1309.042048 2339.375805,1307.160923 2333.067739,1311.155070 2331.728678,1309.115939 2328.156597,1311.103023 2317.690610,1291.566061 2315.134490,1292.885231 2309.478869,1283.535075 2311.033951,1280.847921 2301.702191,1266.385361 2305.959646,1264.238626 2304.458293,1261.852877 2313.324303,1256.372649 2319.076603,1256.600482 2326.609660,1264.791183 2324.024324,1269.492354 2330.260757,1272.262068 2334.176209,1270.445515 2337.042724,1271.154584 2339.367230,1275.407117 2348.466176,1279.887228 2349.666651,1278.720595 2357.068233,1283.026964"/>
    <poly id="100646631" type="building.apartments" color="255,230,230" fill="1" layer="-1.00" shape="2254.278566,993.384511 2312.611670,990.297091 2313.515218,1009.020650 2311.649014,1009.112142 2311.853931,1012.952795 2305.279199,1013.261440 2305.128433,1009.321228 2303.720661,1009.373074 2303.274366,1000.745672 2254.987348,1003.561203 2254.278566,993.384511"/>
    <poly id="100646638" type="amenity.pub" color="237,199,199" fill="1" layer="-1.00" shape="2311.223726,1084.353005 2320.692595,1094.678142 2331.706348,1086.995493 2325.522729,1083.603284 2321.762851,1083.251918 2314.329418,1081.292866 2311.223726,1084.353005"/>
    <poly id="100646638#1" type="building.yes" color="255,230,230" fill="1" layer="-1.00" shape="2311.223726,1084.353005 2320.692595,1094.678142 2331.706348,1086.995493 2325.522729,1083.603284 2321.762851,1083.251918 2314.329418,1081.292866 2311.223726,1084.353005"/>
    <poly id="100646641" type="amenity.pub" color="237,199,199" fill="1" layer="-1.00" shape="2273.531929,1060.778367 2276.399483,1053.877202 2285.445656,1055.864393 2286.886189,1049.582310 2295.671519,1051.755901 2294.569660,1057.396258 2301.019522,1058.844189 2300.262430,1066.401875 2273.531929,1060.778367"/>
    <poly id="100646641#1" type="building.yes" color="255,230,230" fill="1" layer="-1.00" shape="2273.531929,1060.778367 2276.399483,1053.877202 2285.445656,1055.864393 2286.886189,1049.582310 2295.671519,1051.755901 2294.569660,1057.396258 2301.019522,1058.844189 2300.262430,1066.401875 2273.531929,1060.778367"/>
    <poly id="100646645" type="building.yes" color="255,230,230" fill="1" layer="-1.00" shape="2330.143823,1232.563124 2346.693071,1206.714727 2353.279503,1210.912313 2360.649710,1199.408252 2368.350331,1204.318614 2337.262879,1252.887962 2329.634722,1248.034048 2336.815921,1236.817225 2330.143823,1232.563124"/>
    <poly id="100646647" type="building.commercial" color="255,230,230" fill="1" layer="-1.00" shape="2209.368268,1076.755314 2235.441623,1069.198287 2235.470830,1068.319640 2240.886520,1068.388049 2240.868374,1065.083426 2244.925007,1064.992826 2245.454415,1066.400306 2259.879176,1061.924496 2251.067519,1032.124756 2195.668395,1034.631999 2209.368268,1076.755314"/>
    <poly id="100646649" type="building.commercial" color="255,230,230" fill="1" layer="-1.00" shape="2327.286644,989.173069 2364.701293,986.331981 2364.957223,987.235903 2365.029319,987.948734 2365.028524,988.649666 2364.867140,989.471281 2360.363567,997.901567 2362.555177,999.048534 2365.294481,1000.501713 2355.020402,1019.785458 2340.606716,1016.305984 2328.752207,1014.989870 2328.281409,1014.317320 2327.286644,989.173069"/>
    <poly id="100646652" type="building.commercial" color="255,230,230" fill="1" layer="-1.00" shape="2214.980752,1014.887164 2213.930262,996.840764 2243.467773,995.050305 2244.746895,1014.690154 2238.677178,1014.948605 2238.486490,1013.522456 2214.980752,1014.887164"/>
    <poly id="100646658" type="amenity.parking" color="184,184,179" fill="1" layer="-1.00" shape="2323.805263,1046.479761 2347.411000,1060.092298 2350.847627,1054.621341 2353.080632,1056.870221 2353.483701,1058.921685 2347.776736,1068.796735 2350.556415,1070.194704 2353.141850,1071.757506 2358.560805,1061.501123 2362.000375,1060.135713 2372.304267,1065.574352 2369.100980,1070.947634 2386.104256,1080.585116 2387.666527,1077.230500 2394.737226,1080.843598 2405.284379,1060.850769 2366.043940,1039.995961 2364.315628,1043.359949 2354.899329,1036.840386 2347.457967,1036.249702 2345.728455,1039.101887 2333.272899,1031.871465 2327.698748,1030.466147 2322.528272,1039.200930 2326.401005,1041.433792 2323.805263,1046.479761"/>
    <poly id="100646660" type="building.yes" color="255,230,230" fill="1" layer="-1.00" shape="2361.615819,1276.054654 2378.255206,1251.097404 2366.990961,1243.623620 2350.351609,1268.580909 2361.615819,1276.054654"/>
    <poly id="100646662" type="building.commercial" color="255,230,230" fill="1" layer="-1.00" shape="2442.954992,1133.859238 2425.661651,1124.062702 2435.328124,1106.997862 2452.486998,1116.959895 2449.733645,1121.837231 2442.954992,1133.859238"/>
    <poly id="100646665" type="building.residential" color="255,230,230" fill="1" layer="-1.00" shape="2331.874688,1129.988279 2291.449866,1080.594381 2266.594308,1077.193720 2264.514566,1092.447753 2283.712904,1119.842993 2299.320961,1134.616747 2309.054946,1148.104465 2331.874688,1129.988279"/>
    <poly id="100646677" type="building.yes" color="255,230,230" fill="1" layer="-1.00" shape="2395.248981,1205.894578 2388.464417,1217.872094 2419.765560,1235.527535 2426.550297,1223.538939 2395.248981,1205.894578"/>
    <poly id="100646682" type="building.apartments" color="255,230,230" fill="1" layer="-1.00" shape="2213.291570,996.978651 2214.256301,1015.602697 2112.417577,1022.626895 2112.028856,1014.801197 2112.155824,1012.833230 2113.168525,1011.219515 2115.095259,1008.536220 2117.548736,1006.259020 2119.396073,1004.809877 2121.328636,1003.461769 2122.857809,1002.598949 2124.023881,1002.177340 2125.907702,1001.674297 2128.340172,1001.388439 2213.291570,996.978651"/>
    <poly id="100646687" type="building.commercial" color="255,230,230" fill="1" layer="-1.00" shape="2425.661651,1124.062702 2395.533371,1107.153999 2418.856093,1065.467487 2448.783187,1081.962533 2441.880428,1095.040197 2435.328124,1106.997862 2425.661651,1124.062702"/>
    <poly id="100646688" type="amenity.parking" color="184,184,179" fill="1" layer="-1.00" shape="2314.080654,1014.545153 2328.281409,1014.317320 2327.286644,989.173069 2325.069724,989.160705 2313.384249,989.426319 2314.080654,1014.545153"/>
    <poly id="101850716" type="building.yes" color="255,230,230" fill="1" layer="-1.00" shape="1792.443510,1571.991275 1794.816563,1575.442972 1795.845930,1579.180983 1795.986032,1582.909670 1793.981667,1587.339063 1762.109801,1621.629170 1757.300012,1623.970867 1750.048121,1623.750252 1722.959803,1603.105932 1720.687538,1599.532941 1719.841023,1595.440828 1720.601305,1590.653473 1723.482518,1586.778406 1728.142605,1584.156956 1782.549156,1569.951617 1787.222635,1569.855972 1792.443510,1571.991275"/>
    <poly id="101853633" type="waterway.river" color="181,209,209" fill="0" layer="-4.00" shape="2326.440242,904.917780 2317.410779,895.687646 2311.288400,892.129219 2300.647484,889.012493 2293.200679,895.809525 2280.472894,935.572721"/>
    <poly id="101855017" type="waterway.canal" color="181,209,209" fill="0" layer="-4.00" shape="1450.942832,1158.796838 1452.631126,1156.021789 1482.870913,1106.436603"/>
    <poly id="102044712" type="building.office" color="255,230,230" fill="1" layer="-1.00" shape="1652.723928,1676.414723 1674.950735,1647.875282 1707.867535,1605.618181 1746.354758,1636.094824 1715.181622,1675.343638 1690.848834,1705.974799 1652.723928,1676.414723"/>
    <poly id="102044719" type="amenity.courthouse" color="237,199,199" fill="1" layer="-1.00" shape="1762.624765,1697.892331 1765.843106,1710.609725 1757.788696,1712.884041 1774.608884,1777.869411 1782.871930,1775.942219 1785.589124,1786.440296 1792.043549,1784.839066 1795.212844,1797.789616 1809.507330,1794.089927 1803.995630,1772.881539 1804.880556,1772.668299 1786.801265,1703.107945 1785.922381,1703.376881 1781.098943,1684.868240 1766.804152,1688.568016 1768.756347,1696.076289 1762.624765,1697.892331"/>
    <poly id="102044719#1" type="building.public" color="255,230,230" fill="1" layer="-1.00" shape="1762.624765,1697.892331 1765.843106,1710.609725 1757.788696,1712.884041 1774.608884,1777.869411 1782.871930,1775.942219 1785.589124,1786.440296 1792.043549,1784.839066 1795.212844,1797.789616 1809.507330,1794.089927 1803.995630,1772.881539 1804.880556,1772.668299 1786.801265,1703.107945 1785.922381,1703.376881 1781.098943,1684.868240 1766.804152,1688.568016 1768.756347,1696.076289 1762.624765,1697.892331"/>
    <poly id="112454525" type="building.yes" color="255,230,230" fill="1" layer="-1.00" shape="1639.671680,1403.768741 1703.821901,1385.914854 1693.253469,1348.665621 1643.302736,1363.719665 1645.112633,1370.269553 1639.721521,1371.058780 1639.671680,1403.768741"/>
    <poly id="113404305" type="building.yes" color="255,230,230" fill="1" layer="-1.00" shape="2019.654771,963.938429 2067.644068,962.307840 2073.522464,961.312835 2075.509329,957.962596 2070.917000,945.263895 2066.735335,942.093403 2020.665708,940.428666 2019.654771,963.938429"/>
    <poly id="113404306" type="building.yes" color="255,230,230" fill="1" layer="-1.00" shape="1948.008288,937.772654 1947.126034,951.604143 2001.299405,953.998775 2000.777860,965.708984 2013.481426,965.208546 2014.709957,939.943162 1948.008288,937.772654"/>
    <poly id="114250136" type="building.commercial" color="255,230,230" fill="1" layer="-1.00" shape="2204.386865,897.440081 2187.303204,888.403228 2185.894912,891.014090 2178.481806,887.097293 2171.247777,883.193525 2172.710336,880.471971 2156.840475,872.772048 2173.001151,839.742664 2182.153361,822.938913 2229.434315,849.518062 2204.386865,897.440081"/>
    <poly id="114250784" type="building.yes" color="255,230,230" fill="1" layer="-1.00" shape="2126.409987,720.079939 2140.226389,693.456549 2148.781487,676.635306 2148.002505,665.534439 2121.759718,637.364539 2118.159217,640.119181 2114.501967,636.297750 2110.949054,639.575823 2114.546449,643.407746 2110.757587,647.028237 2134.373065,672.544606 2128.979608,682.278584 2127.169956,681.402784 2124.801380,685.683560 2122.872583,689.179030 2124.257547,690.039222 2118.256306,700.757015 2111.791256,697.551271 2108.840256,702.927387 2105.572019,708.800829 2126.409987,720.079939"/>
    <poly id="114250784#1" type="tourism.hotel" color="207,245,201" fill="1" layer="-2.00" shape="2126.409987,720.079939 2140.226389,693.456549 2148.781487,676.635306 2148.002505,665.534439 2121.759718,637.364539 2118.159217,640.119181 2114.501967,636.297750 2110.949054,639.575823 2114.546449,643.407746 2110.757587,647.028237 2134.373065,672.544606 2128.979608,682.278584 2127.169956,681.402784 2124.801380,685.683560 2122.872583,689.179030 2124.257547,690.039222 2118.256306,700.757015 2111.791256,697.551271 2108.840256,702.927387 2105.572019,708.800829 2126.409987,720.079939"/>
    <poly id="114298696" type="building.commercial" color="255,230,230" fill="1" layer="-1.00" shape="2824.922392,1250.293498 2804.990691,1270.073756 2813.375316,1279.242323 2833.881437,1259.746400 2827.613345,1253.137190 2824.922392,1250.293498"/>
    <poly id="114394108" type="building.office" color="255,230,230" fill="1" layer="-1.00" shape="2301.267382,1197.766487 2278.069857,1215.244631 2272.911069,1219.139765 2270.731787,1223.734002 2270.853882,1224.113579 2272.590590,1229.350073 2292.990028,1254.833277 2326.143077,1229.271926 2301.267382,1197.766487"/>
    <poly id="114394108#1" type="landuse.commercial" color="209,209,204" fill="1" layer="-3.00" shape="2301.267382,1197.766487 2278.069857,1215.244631 2272.911069,1219.139765 2270.731787,1223.734002 2270.853882,1224.113579 2272.590590,1229.350073 2292.990028,1254.833277 2326.143077,1229.271926 2301.267382,1197.766487"/>
    <poly id="114412249" type="amenity.parking" color="184,184,179" fill="1" layer="-1.00" shape="2747.359388,1398.453070 2783.697264,1364.450873 2800.495384,1382.543490 2830.383987,1414.728345 2836.381425,1421.178902 2825.400774,1431.341847 2807.146845,1448.225019 2799.699563,1455.076883 2795.257476,1450.278539 2751.767796,1403.306637 2748.572292,1399.856789 2747.359388,1398.453070"/>
    <poly id="114412249#1" type="building.parking" color="255,230,230" fill="1" layer="-1.00" shape="2747.359388,1398.453070 2783.697264,1364.450873 2800.495384,1382.543490 2830.383987,1414.728345 2836.381425,1421.178902 2825.400774,1431.341847 2807.146845,1448.225019 2799.699563,1455.076883 2795.257476,1450.278539 2751.767796,1403.306637 2748.572292,1399.856789 2747.359388,1398.453070"/>
    <poly id="114421553" type="amenity.pub" color="237,199,199" fill="1" layer="-1.00" shape="2065.839985,996.178690 2065.733859,981.057306 2078.918669,980.239461 2076.946321,987.250314 2074.414962,992.508488 2068.926925,998.035898 2065.839985,996.178690"/>
    <poly id="114421553#1" type="building.yes" color="255,230,230" fill="1" layer="-1.00" shape="2065.839985,996.178690 2065.733859,981.057306 2078.918669,980.239461 2076.946321,987.250314 2074.414962,992.508488 2068.926925,998.035898 2065.839985,996.178690"/>
    <poly id="114421554" type="building.yes" color="255,230,230" fill="1" layer="-1.00" shape="1947.442673,991.561006 1947.869832,1007.119673 1950.275028,1009.425800 1971.244268,1008.133225 1973.826239,1005.623657 1973.013709,990.739620 1947.442673,991.561006"/>
    <poly id="114421555" type="building.train_station" color="255,230,230" fill="1" layer="-1.00" shape="1867.661168,1001.781989 1867.187365,1016.563490 1868.342625,1018.433663 1870.255699,1019.566351 1872.497165,1019.767902 1886.481311,1015.508851 1883.447913,1006.019878 1887.041414,1005.156412 1886.679456,1003.594968 1886.298639,1001.933192 1882.653559,1002.651479 1881.797388,998.848516 1870.457398,1000.988021 1867.661168,1001.781989"/>
    <poly id="114421556" type="building.yes" color="255,230,230" fill="1" layer="-1.00" shape="2010.761583,987.743479 1983.672690,988.982603 1983.835380,1005.061415 1986.179539,1007.489304 2008.834742,1006.203513 2011.467333,1002.670905 2010.761583,987.743479"/>
    <poly id="114421557" type="building.yes" color="255,230,230" fill="1" layer="-1.00" shape="1904.642757,1005.997744 1903.691356,999.256508 1927.655452,995.959144 1927.415662,991.617477 1939.693816,990.533817 1938.779400,1005.533202 1933.981972,1009.788535 1926.455824,1010.310225 1925.882537,1003.595210 1904.642757,1005.997744"/>
    <poly id="114421558" type="landuse.construction" color="194,194,130" fill="1" layer="-3.00" shape="2019.247278,984.984570 2064.013457,982.429925 2064.230005,1000.300601 2060.825663,1004.626121 2019.948922,1007.232877 2019.247278,984.984570"/>
    <poly id="114467021" type="building.yes" color="255,230,230" fill="1" layer="-1.00" shape="2641.054269,1096.725787 2652.737263,1075.510612 2708.229460,1105.931698 2707.410470,1107.413844 2696.546287,1127.146737 2641.054269,1096.725787"/>
    <poly id="114467022" type="landuse.commercial" color="209,209,204" fill="1" layer="-3.00" shape="2657.017127,1127.926567 2655.821315,1126.155897 2596.412617,1092.010981 2589.813103,1105.247431 2595.557758,1108.702069 2580.374852,1136.355464 2597.985461,1145.621901 2620.581252,1156.721704 2635.142314,1163.752823 2636.126600,1162.328056 2657.017127,1127.926567"/>
    <poly id="114467929" type="building.residential" color="255,230,230" fill="1" layer="-1.00" shape="2829.473123,1297.049393 2813.375316,1279.242323 2833.881437,1259.746400 2850.352951,1276.745338 2829.473123,1297.049393"/>
    <poly id="114467930" type="building.yes" color="255,230,230" fill="1" layer="-1.00" shape="2743.214299,1263.972649 2721.950389,1241.971811 2730.708830,1232.941997 2753.589182,1253.992181 2743.214299,1263.972649"/>
    <poly id="114467931" type="building.commercial" color="255,230,230" fill="1" layer="-1.00" shape="2719.344293,1245.470937 2701.694070,1264.219015 2720.983708,1284.629902 2740.289754,1267.457235 2719.344293,1245.470937"/>
    <poly id="114472083" type="amenity.parking" color="184,184,179" fill="1" layer="-1.00" shape="2059.570268,932.905672 2034.413418,932.184442 1977.735787,930.564158 1972.709189,832.924967 2061.939551,876.265813 2064.058128,890.651836 2065.533091,906.900248 2064.448133,917.258265 2059.570268,932.905672"/>
    <poly id="114474043" type="landuse.meadow" color="194,194,130" fill="1" layer="-3.00" shape="2074.038565,860.093723 2069.755951,843.192656 2073.352425,842.062335 2072.246897,843.663954 2072.535937,846.470758 2074.311245,848.080494 2077.216939,848.878822 2079.570940,847.857794 2080.903897,846.091684 2081.014697,843.767513 2079.633103,841.961658 2077.939036,840.831195 2083.287468,839.118547 2080.220781,828.405233 2088.588616,813.562343 2085.738093,811.307081 2095.211219,794.261778 2092.173617,792.749983 2101.559493,773.912483 2098.947732,772.305041 2114.324905,743.061173 2121.914601,744.109214 2111.929600,765.610600 2085.494768,854.529109 2074.038565,860.093723"/>
    <poly id="114474044" type="amenity.parking" color="184,184,179" fill="1" layer="-1.00" shape="2070.626137,734.189082 2039.619541,785.809732 2054.317469,817.206452 2057.725885,824.474282 2065.694987,826.672214 2075.242781,809.460769 2072.114605,807.725512 2067.750746,805.454309 2071.505912,798.718145 2075.730507,800.976757 2083.319237,787.627656 2079.967957,785.645269 2090.220790,767.684717 2086.643591,765.722196 2094.405500,751.696251 2087.984904,748.057092 2096.497399,733.360379 2077.653322,722.480704 2075.342484,726.328198 2079.478510,728.808399 2074.762275,736.658154 2070.626137,734.189082"/>
    <poly id="114474045" type="building.commercial" color="255,230,230" fill="1" layer="-1.00" shape="2069.755951,843.192656 2073.352425,842.062335 2072.246897,843.663954 2072.535937,846.470758 2074.311245,848.080494 2077.216939,848.878822 2079.570940,847.857794 2080.903897,846.091684 2081.014697,843.767513 2079.633103,841.961658 2077.939036,840.831195 2083.287468,839.118547 2080.220781,828.405233 2088.588616,813.562343 2085.738093,811.307081 2095.211219,794.261778 2092.173617,792.749983 2101.559493,773.912483 2098.947732,772.305041 2114.324905,743.061173 2096.497399,733.360379 2087.984904,748.057092 2094.405500,751.696251 2086.643591,765.722196 2090.220790,767.684717 2079.967957,785.645269 2083.319237,787.627656 2075.730507,800.976757 2071.505912,798.718145 2067.750746,805.454309 2072.114605,807.725512 2075.242781,809.460769 2065.694987,826.672214 2069.755951,843.192656"/>
    <poly id="114478517" type="amenity.courthouse" color="237,199,199" fill="1" layer="-1.00" shape="2926.456642,1500.349120 2926.646712,1500.573680 2926.998442,1500.577452 2932.399004,1506.343044 2932.388669,1506.687842 2932.578857,1506.901277 2932.923831,1506.916103 2950.969607,1526.157516 2950.970037,1526.736076 2951.330741,1527.140485 2951.954441,1527.158303 2952.370313,1526.751101 2952.395952,1526.217325 2952.958899,1525.711566 2956.246960,1529.173677 2954.920303,1530.338804 2967.588997,1544.093068 2971.671140,1540.354021 2968.842748,1537.353001 2979.216338,1527.484273 2979.492080,1527.765385 2982.744645,1524.640501 2981.688131,1523.516551 2986.773219,1518.475408 2987.882466,1519.633304 2991.089663,1516.407803 2989.770798,1514.991757 3000.972467,1504.041612 3003.412975,1501.753602 2994.797799,1492.493198 2994.020208,1493.208042 2992.537338,1491.612217 2991.060745,1490.049837 2991.844853,1489.346189 2984.839914,1481.560610 2973.783367,1469.715039 2967.117733,1462.467181 2960.434554,1468.603802 2950.981293,1477.436596 2943.057167,1484.794920 2933.207648,1494.068541 2932.836008,1494.064555 2932.628012,1494.273719 2932.617796,1494.607392 2927.046493,1499.810269 2926.674973,1499.795158 2926.466977,1500.004323 2926.456642,1500.349120"/>
    <poly id="114478517#1" type="building.public" color="255,230,230" fill="1" layer="-1.00" shape="2926.456642,1500.349120 2926.646712,1500.573680 2926.998442,1500.577452 2932.399004,1506.343044 2932.388669,1506.687842 2932.578857,1506.901277 2932.923831,1506.916103 2950.969607,1526.157516 2950.970037,1526.736076 2951.330741,1527.140485 2951.954441,1527.158303 2952.370313,1526.751101 2952.395952,1526.217325 2952.958899,1525.711566 2956.246960,1529.173677 2954.920303,1530.338804 2967.588997,1544.093068 2971.671140,1540.354021 2968.842748,1537.353001 2979.216338,1527.484273 2979.492080,1527.765385 2982.744645,1524.640501 2981.688131,1523.516551 2986.773219,1518.475408 2987.882466,1519.633304 2991.089663,1516.407803 2989.770798,1514.991757 3000.972467,1504.041612 3003.412975,1501.753602 2994.797799,1492.493198 2994.020208,1493.208042 2992.537338,1491.612217 2991.060745,1490.049837 2991.844853,1489.346189 2984.839914,1481.560610 2973.783367,1469.715039 2967.117733,1462.467181 2960.434554,1468.603802 2950.981293,1477.436596 2943.057167,1484.794920 2933.207648,1494.068541 2932.836008,1494.064555 2932.628012,1494.273719 2932.617796,1494.607392 2927.046493,1499.810269 2926.674973,1499.795158 2926.466977,1500.004323 2926.456642,1500.349120"/>
    <poly id="114490765" type="landuse.construction" color="194,194,130" fill="1" layer="-3.00" shape="1997.354610,653.977560 2047.585596,680.563639 2079.063441,622.094378 2067.783029,619.116086 2012.859585,627.071179 1997.354610,653.977560"/>
    <poly id="114490766" type="amenity.parking" color="184,184,179" fill="1" layer="-1.00" shape="2047.585596,680.563639 2055.402385,684.640241 2098.259464,708.534559 2101.121996,708.397859 2112.370024,693.029086 2117.414113,695.641286 2130.291770,671.166411 2118.255613,658.667273 2106.327496,652.911674 2112.287620,634.138195 2079.063441,622.094378 2047.585596,680.563639"/>
    <poly id="114491028" type="landuse.grass" color="194,194,130" fill="1" layer="-3.00" shape="2439.539006,685.443687 2446.963865,690.139838 2458.938752,668.949548 2459.095414,667.949869 2460.471482,659.019156 2458.820824,646.929876 2456.219441,656.848917 2452.235435,663.192943 2450.411309,667.434840 2439.539006,685.443687"/>
    <poly id="114491035" type="building.dormitory" color="255,230,230" fill="0" layer="-1.00" shape="2436.056090,660.228494 2432.351771,658.364495 2434.300463,654.268553 2434.378178,653.201279 2434.581112,650.344043 2434.064492,645.231710"/>
    <poly id="114549203" type="landuse.commercial" color="209,209,204" fill="1" layer="-3.00" shape="2316.684451,2434.300688 2311.777746,2444.584794 2308.452282,2451.558969 2300.579962,2468.053380 2296.908482,2475.747091 2292.612566,2484.758191 2304.734652,2493.665084 2324.932194,2461.902853 2328.648569,2462.498552 2329.171049,2457.030070 2334.984699,2457.592379 2336.726536,2445.394434 2316.684451,2434.300688"/>
    <poly id="114549275" type="amenity.parking" color="184,184,179" fill="1" layer="-1.00" shape="2459.748723,2671.969880 2433.714198,2661.045567 2396.177689,2644.102463 2390.721662,2641.752575 2432.690744,2573.750708 2479.593397,2603.533026 2497.314071,2613.801712 2528.903661,2632.117579 2511.123191,2661.156537 2506.083889,2666.421180 2498.552653,2672.026479 2492.113289,2674.795130 2484.265333,2676.491832 2477.852365,2676.779669 2471.457386,2675.999604 2459.748723,2671.969880"/>
    <poly id="114549275#1" type="building.yes" color="255,230,230" fill="1" layer="-1.00" shape="2459.748723,2671.969880 2433.714198,2661.045567 2396.177689,2644.102463 2390.721662,2641.752575 2432.690744,2573.750708 2479.593397,2603.533026 2497.314071,2613.801712 2528.903661,2632.117579 2511.123191,2661.156537 2506.083889,2666.421180 2498.552653,2672.026479 2492.113289,2674.795130 2484.265333,2676.491832 2477.852365,2676.779669 2471.457386,2675.999604 2459.748723,2671.969880"/>
    <poly id="114550760" type="building.school" color="255,230,230" fill="1" layer="-1.00" shape="2408.913921,2460.757775 2395.773296,2454.042760 2336.161719,2420.432696 2335.826571,2418.871494 2337.548459,2417.944036 2341.922720,2416.577409 2360.651363,2409.488474 2366.987962,2407.675392 2376.256236,2405.993560 2385.461306,2405.890976 2395.363915,2406.340991 2402.313315,2407.438363 2408.518749,2408.605728 2416.960398,2411.654901 2425.594472,2415.329192 2434.163297,2420.771851 2435.123447,2423.463432 2434.918079,2426.554295 2413.282375,2459.936329 2411.113318,2460.480725 2408.913921,2460.757775"/>
    <poly id="114603870" type="building.hotel" color="255,230,230" fill="1" layer="-1.00" shape="2569.095369,1054.881714 2568.877168,1053.555392 2570.194252,1051.422089 2585.671879,1024.161211 2587.928965,1025.386864 2591.699171,1018.540000 2589.534528,1017.359835 2591.875874,1013.168003 2594.038259,1008.952014 2596.104296,1010.042123 2599.652656,1003.459928 2597.618973,1002.448044 2613.025090,974.452172 2626.075122,981.311385 2627.005372,984.336459 2631.111307,997.686977 2632.792477,1003.123283 2634.826350,1009.720458 2633.933174,1011.313087 2620.271426,1035.077334 2623.591137,1036.870631 2627.061956,1038.810181 2635.733044,1023.048001 2639.960078,1032.505703 2644.351460,1043.978977 2649.074330,1054.243050 2652.985418,1056.598978 2637.348687,1083.813441 2632.555054,1092.017862 2601.636650,1074.554240 2571.511385,1057.388546 2569.335021,1056.063626 2569.095369,1054.881714"/>
    <poly id="114603870#1" type="tourism.hotel" color="207,245,201" fill="1" layer="-2.00" shape="2569.095369,1054.881714 2568.877168,1053.555392 2570.194252,1051.422089 2585.671879,1024.161211 2587.928965,1025.386864 2591.699171,1018.540000 2589.534528,1017.359835 2591.875874,1013.168003 2594.038259,1008.952014 2596.104296,1010.042123 2599.652656,1003.459928 2597.618973,1002.448044 2613.025090,974.452172 2626.075122,981.311385 2627.005372,984.336459 2631.111307,997.686977 2632.792477,1003.123283 2634.826350,1009.720458 2633.933174,1011.313087 2620.271426,1035.077334 2623.591137,1036.870631 2627.061956,1038.810181 2635.733044,1023.048001 2639.960078,1032.505703 2644.351460,1043.978977 2649.074330,1054.243050 2652.985418,1056.598978 2637.348687,1083.813441 2632.555054,1092.017862 2601.636650,1074.554240 2571.511385,1057.388546 2569.335021,1056.063626 2569.095369,1054.881714"/>
    <poly id="114604597" type="building.office" color="255,230,230" fill="1" layer="-1.00" shape="2409.565398,1129.677374 2386.929809,1172.951117 2386.681468,1174.461624 2387.019885,1175.722457 2387.987270,1177.134601 2400.198796,1189.803219 2400.844249,1190.277363 2401.478317,1190.573368 2402.230170,1190.403331 2402.831146,1190.064801 2403.601088,1188.815730 2429.580641,1140.682111 2409.565398,1129.677374"/>
    <poly id="114604597#1" type="landuse.commercial" color="209,209,204" fill="1" layer="-3.00" shape="2409.565398,1129.677374 2386.929809,1172.951117 2386.681468,1174.461624 2387.019885,1175.722457 2387.987270,1177.134601 2400.198796,1189.803219 2400.844249,1190.277363 2401.478317,1190.573368 2402.230170,1190.403331 2402.831146,1190.064801 2403.601088,1188.815730 2429.580641,1140.682111 2409.565398,1129.677374"/>
    <poly id="114615384" type="building.yes" color="255,230,230" fill="1" layer="-1.00" shape="1946.611259,963.314427 1947.126034,951.604143 2001.299405,953.998775 2000.777860,965.708984 1946.611259,963.314427"/>
    <poly id="114615384#1" type="landuse.commercial" color="209,209,204" fill="1" layer="-3.00" shape="1946.611259,963.314427 1947.126034,951.604143 2001.299405,953.998775 2000.777860,965.708984 1946.611259,963.314427"/>
    <poly id="114615385" type="building.yes" color="255,230,230" fill="1" layer="-1.00" shape="2306.811896,895.497497 2311.237375,898.826550 2315.274785,901.817715 2321.755199,907.293618 2324.180298,909.589021 2323.288190,911.715768 2322.434646,914.588367 2321.891402,917.620018 2321.667292,921.856662 2321.508928,925.526575 2321.898668,928.212078 2322.704158,930.501448 2324.528360,933.124267 2327.222541,936.334858 2345.305003,953.805218 2316.680369,955.237558 2310.411182,954.892999 2302.179155,954.360770 2292.935644,953.439560 2283.697782,951.984378 2282.005216,950.720345 2279.996655,949.208194 2283.709351,938.978170 2286.020496,935.108527 2290.871226,918.960382 2293.922677,907.866661 2295.942704,901.401575 2297.438163,898.713785 2298.933428,896.671303 2300.913137,895.268135 2302.903216,894.766287 2304.965756,894.943895 2306.811896,895.497497"/>
    <poly id="114615386" type="building.yes" color="255,230,230" fill="1" layer="-1.00" shape="1909.300656,936.052911 1923.635258,936.370441 1923.007461,964.523793 1908.672943,964.206264 1909.300656,936.052911"/>
    <poly id="114615386#1" type="landuse.commercial" color="209,209,204" fill="1" layer="-3.00" shape="1909.300656,936.052911 1923.635258,936.370441 1923.007461,964.523793 1908.672943,964.206264 1909.300656,936.052911"/>
    <poly id="114615387" type="building.yes" color="255,230,230" fill="1" layer="-1.00" shape="1940.498341,965.152701 1923.007461,964.523793 1923.635258,936.370441 1941.998641,936.730373 1940.498341,965.152701"/>