<?xml version="1.0" encoding="UTF-8"?>

<!-- generated on 01/14/21 17:25:09 by Eclipse SUMO duarouter Version 1.7.0
<configuration xmlns:xsi="http://www.w3.org/2001/XMLSchema-instance" xsi:noNamespaceSchemaLocation="http://sumo.dlr.de/xsd/duarouterConfiguration.xsd">

    <time>
        <begin value="0"/>
        <end value="3600"/>
    </time>

    <report>
        <no-warnings value="true"/>
        <ignore-errors value="true"/>
        <no-step-log value="true"/>
    </report>

</configuration>
-->

<routes xmlns:xsi="http://www.w3.org/2001/XMLSchema-instance" xsi:noNamespaceSchemaLocation="http://sumo.dlr.de/xsd/routes_file.xsd">
    <vType id="bus_bus" vClass="bus"/>
    <trip id="bus0" type="bus_bus" depart="0.00" departLane="best" from="236429527" to="-154979513"/>
    <trip id="bus1" type="bus_bus" depart="2.84" departLane="best" departSpeed="max" from="4848962" to="-163566192#1"/>
    <trip id="bus2" type="bus_bus" depart="5.69" departLane="best" from="119826654" to="-155729948#1"/>
    <trip id="bus3" type="bus_bus" depart="8.53" departLane="best" from="-28008451#1" to="159131933#1"/>
    <trip id="bus4" type="bus_bus" depart="11.38" departLane="best" from="-154986397#0" to="-27943846#0"/>
    <trip id="bus5" type="bus_bus" depart="14.22" departLane="best" from="24716807#0" to="163566192#0"/>
    <trip id="bus6" type="bus_bus" depart="17.06" departLane="best" from="-28008878#4" to="172453014#1"/>
    <trip id="bus7" type="bus_bus" depart="19.91" departLane="best" from="334451178" to="27943846#2"/>
    <trip id="bus8" type="bus_bus" depart="22.75" departLane="best" from="-476659509#1" to="-243211506#0"/>
    <trip id="bus9" type="bus_bus" depart="25.60" departLane="best" from="79707630" to="-47441314#2"/>
    <trip id="bus10" type="bus_bus" depart="28.44" departLane="best" from="-163566222" to="-167121171#4"/>
    <trip id="bus11" type="bus_bus" depart="31.28" departLane="best" from="384186344#0" to="187166624#0"/>
    <trip id="bus12" type="bus_bus" depart="34.13" departLane="best" from="341760642#0" to="28013729#1"/>
    <trip id="bus14" type="bus_bus" depart="39.82" departLane="best" from="3650041#2" to="197713163#1"/>
    <trip id="bus15" type="bus_bus" depart="42.66" departLane="best" from="452551902" to="171648623#0"/>
    <trip id="bus16" type="bus_bus" depart="45.50" departLane="best" from="27946464#1" to="-155998558#2"/>
    <trip id="bus17" type="bus_bus" depart="48.35" departLane="best" from="-28011577#2" to="-30342456"/>
    <trip id="bus18" type="bus_bus" depart="51.19" departLane="best" from="-163383619" to="-28022566#0"/>
    <trip id="bus19" type="bus_bus" depart="54.03" departLane="best" from="-169014284#1" to="-28059218#0"/>
    <trip id="bus20" type="bus_bus" depart="56.88" departLane="best" from="23100865#0" to="-647690430#1"/>
    <trip id="bus21" type="bus_bus" depart="59.72" departLane="best" from="-683333454#1" to="-27946748"/>
    <trip id="bus22" type="bus_bus" depart="62.57" departLane="best" from="-28038960#0" to="732478286"/>
    <trip id="bus23" type="bus_bus" depart="65.41" departLane="best" from="246124650" to="187808444"/>
    <trip id="bus24" type="bus_bus" depart="68.25" departLane="best" from="-27683075#0" to="28011577#8"/>
    <trip id="bus25" type="bus_bus" depart="71.10" departLane="best" from="-250134165#6" to="-75354233#1"/>
    <trip id="bus26" type="bus_bus" depart="73.94" departLane="best" from="165524112#2" to="27931340#0"/>
    <trip id="bus27" type="bus_bus" depart="76.79" departLane="best" from="37077810" to="28039382#1"/>
    <trip id="bus28" type="bus_bus" depart="79.63" departLane="best" from="-28013729#1" to="-155731249#11"/>
    <trip id="bus29" type="bus_bus" depart="82.47" departLane="best" from="-3697941#1" to="-28038972#0"/>
    <trip id="bus30" type="bus_bus" depart="85.32" departLane="best" from="-27946853#2" to="75354228#3"/>
    <trip id="bus31" type="bus_bus" depart="88.16" departLane="best" from="47441044#1" to="-37077798#1"/>
    <trip id="bus32" type="bus_bus" depart="91.01" departLane="best" from="250134165#2" to="-798782#1"/>
    <trip id="bus33" type="bus_bus" depart="93.85" departLane="best" from="60904319" to="154689108"/>
    <trip id="bus34" type="bus_bus" depart="96.69" departLane="best" from="-28038943#2" to="-28037767#1"/>
    <trip id="bus35" type="bus_bus" depart="99.54" departLane="best" from="168346696#2" to="-28038937#1"/>
    <trip id="bus36" type="bus_bus" depart="102.38" departLane="best" from="171879635#3" to="4910567#5"/>
    <trip id="bus37" type="bus_bus" depart="105.23" departLane="best" from="-799961#2" to="-28008878#0"/>
    <trip id="bus38" type="bus_bus" depart="108.07" departLane="best" from="930354#2" to="159131959#1"/>
    <trip id="bus39" type="bus_bus" depart="110.91" departLane="best" from="-163566213#6" to="-156338946#1"/>
    <trip id="bus41" type="bus_bus" depart="116.60" departLane="best" from="28102058#1" to="119926723#3"/>
    <trip id="bus42" type="bus_bus" depart="119.45" departLane="best" from="-159132016#2" to="-781570844#0"/>
    <trip id="bus43" type="bus_bus" depart="122.29" departLane="best" from="90542365#3" to="163382983#2"/>
    <trip id="bus44" type="bus_bus" depart="125.13" departLane="best" from="802716643" to="452551904"/>
    <trip id="bus45" type="bus_bus" depart="127.98" departLane="best" from="-122066613#5" to="28008881#0"/>
    <trip id="bus46" type="bus_bus" depart="130.82" departLane="best" from="27929913#1" to="163383622#2"/>
    <trip id="bus47" type="bus_bus" depart="133.67" departLane="best" from="-28038955" to="243047070#0"/>
    <trip id="bus48" type="bus_bus" depart="136.51" departLane="best" from="-171652559" to="122066624#3"/>
    <trip id="bus49" type="bus_bus" depart="139.35" departLane="best" from="145434718#1" to="79434383#0"/>
    <trip id="bus50" type="bus_bus" depart="142.20" departLane="best" from="4721531#7" to="-28038939#4"/>
    <trip id="bus51" type="bus_bus" depart="145.04" departLane="best" from="156340396#1" to="-27929296#0"/>
    <trip id="bus52" type="bus_bus" depart="147.88" departLane="best" from="592735882#2" to="4721489"/>
    <trip id="bus53" type="bus_bus" depart="150.73" departLane="best" from="-353071413" to="242821391#0"/>
    <trip id="bus54" type="bus_bus" depart="153.57" departLane="best" from="187743562#0" to="-23315377"/>
    <trip id="bus56" type="bus_bus" depart="159.26" departLane="best" from="28039391#4" to="163382986"/>
    <trip id="bus57" type="bus_bus" depart="162.10" departLane="best" from="-100872801#2" to="-431136678"/>
    <trip id="bus58" type="bus_bus" depart="164.95" departLane="best" from="-141271864#0" to="679601199"/>
    <trip id="bus59" type="bus_bus" depart="167.79" departLane="best" from="47441323" to="3661460#3"/>
    <trip id="bus60" type="bus_bus" depart="170.64" departLane="best" from="-365007658#1" to="-159131973#3"/>
    <trip id="bus61" type="bus_bus" depart="173.48" departLane="best" from="47441314#2" to="779127908#3"/>
    <trip id="bus62" type="bus_bus" depart="176.32" departLane="best" from="-163566186#5" to="155765294#5"/>
    <trip id="bus63" type="bus_bus" depart="179.17" departLane="best" from="-159238321#2" to="28038166"/>
    <trip id="bus64" type="bus_bus" depart="182.01" departLane="best" from="28038936#1" to="-187166624#5"/>
    <trip id="bus65" type="bus_bus" depart="184.86" departLane="best" from="154986397#3" to="163566218#5"/>
    <trip id="bus66" type="bus_bus" depart="187.70" departLane="best" from="-28038943#3" to="4721502#7"/>
    <trip id="bus67" type="bus_bus" depart="190.54" departLane="best" from="119868797#4" to="-27948100#6"/>
    <trip id="bus68" type="bus_bus" depart="193.39" departLane="best" from="163383622#4" to="28020823"/>
    <trip id="bus69" type="bus_bus" depart="196.23" departLane="best" from="-27943878#9" to="-3697918#0"/>
    <trip id="bus70" type="bus_bus" depart="199.08" departLane="best" from="90542344#1" to="24781758#2"/>
    <trip id="bus72" type="bus_bus" depart="204.76" departLane="best" from="-181712551#1" to="-28011515#8"/>
    <trip id="bus73" type="bus_bus" depart="207.61" departLane="best" from="-28020826#5" to="-28008881#0"/>
    <trip id="bus74" type="bus_bus" depart="210.45" departLane="best" from="-159257673#0" to="229049094#2"/>
    <trip id="bus75" type="bus_bus" depart="213.30" departLane="best" from="-28013715" to="550963219#0"/>
    <trip id="bus76" type="bus_bus" depart="216.14" departLane="best" from="448447730" to="-159257673#1"/>
    <trip id="bus77" type="bus_bus" depart="218.98" departLane="best" from="-28027794#0" to="27683075#0"/>
    <trip id="bus78" type="bus_bus" depart="221.83" departLane="best" from="-27993918#0" to="-190432831#0"/>
    <trip id="bus79" type="bus_bus" depart="224.67" departLane="best" from="688858164" to="171593597#0"/>
    <trip id="bus80" type="bus_bus" depart="227.52" departLane="best" from="154980603#2" to="28078731#0"/>
    <trip id="bus81" type="bus_bus" depart="230.36" departLane="best" from="341760642#2" to="-27938160#1"/>
    <trip id="bus82" type="bus_bus" depart="233.20" departLane="best" from="-167121171#4" to="122066612#3"/>
    <trip id="bus83" type="bus_bus" depart="236.05" departLane="best" from="28011577#11" to="27928340#3"/>
    <trip id="bus84" type="bus_bus" depart="238.89" departLane="best" from="834267#2" to="-168608383#3"/>
    <trip id="bus85" type="bus_bus" depart="241.73" departLane="best" from="-818516139" to="-478364359#1"/>
    <trip id="bus86" type="bus_bus" depart="244.58" departLane="best" from="452085542" to="-28037846#1"/>
    <trip id="bus87" type="bus_bus" depart="247.42" departLane="best" from="-27934955#3" to="145038294"/>
    <trip id="bus88" type="bus_bus" depart="250.27" departLane="best" from="119826654" to="-28059218#5"/>
    <trip id="bus89" type="bus_bus" depart="253.11" departLane="best" from="-28037848#1" to="647690430#0"/>
    <trip id="bus90" type="bus_bus" depart="255.95" departLane="best" from="96397280#2" to="3697903#6"/>
    <trip id="bus91" type="bus_bus" depart="258.80" departLane="best" from="799961#1" to="673957372#1"/>
    <trip id="bus92" type="bus_bus" depart="261.64" departLane="best" from="396055840#0" to="-260900807#3"/>
    <trip id="bus93" type="bus_bus" depart="264.49" departLane="best" from="155731670#1" to="-27993918#0"/>
    <trip id="bus94" type="bus_bus" depart="267.33" departLane="best" from="-800802#0" to="-159131978#0"/>
    <trip id="bus95" type="bus_bus" depart="270.17" departLane="best" from="-75313244#0" to="834269#0"/>
    <trip id="bus96" type="bus_bus" depart="273.02" departLane="best" from="-28038944" to="28078587#0"/>
    <trip id="bus97" type="bus_bus" depart="275.86" departLane="best" from="148760007#2" to="119926726#2"/>
    <trip id="bus98" type="bus_bus" depart="278.71" departLane="best" from="79707631" to="90542358"/>
    <trip id="bus99" type="bus_bus" depart="281.55" departLane="best" from="-243047070#1" to="-341760642#4"/>
    <trip id="bus100" type="bus_bus" depart="284.39" departLane="best" from="799957#1" to="171750816#0"/>
    <trip id="bus101" type="bus_bus" depart="287.24" departLane="best" from="163566156#2" to="28028741#0"/>
    <trip id="bus102" type="bus_bus" depart="290.08" departLane="best" from="-159131970#1" to="171879649#0"/>
    <trip id="bus103" type="bus_bus" depart="292.93" departLane="best" from="156341512#1" to="403953557#1"/>
    <trip id="bus104" type="bus_bus" depart="295.77" departLane="best" from="-246124643#0" to="79708053"/>
    <trip id="bus105" type="bus_bus" depart="298.61" departLane="best" from="-163383624#1" to="-27931340#0"/>
    <trip id="bus106" type="bus_bus" depart="301.46" departLane="best" from="181712551#1" to="27928456#4"/>
    <trip id="bus107" type="bus_bus" depart="304.30" departLane="best" from="-28025124#4" to="-172455180"/>
    <trip id="bus108" type="bus_bus" depart="307.15" departLane="best" from="4818942#3" to="-28037764#1"/>
    <trip id="bus109" type="bus_bus" depart="309.99" departLane="best" from="113514776#1" to="171879642#1"/>
    <trip id="bus110" type="bus_bus" depart="312.83" departLane="best" from="159238299" to="694202752#1"/>
    <trip id="bus111" type="bus_bus" depart="315.68" departLane="best" from="-27944078" to="27994831#0"/>
    <trip id="bus112" type="bus_bus" depart="318.52" departLane="best" from="-28027796#1" to="-798784"/>
    <trip id="bus113" type="bus_bus" depart="321.37" departLane="best" from="-37077798#1" to="28037780#0"/>
    <trip id="bus114" type="bus_bus" depart="324.21" departLane="best" from="-163313151#11" to="154687182#5"/>
    <trip id="bus115" type="bus_bus" depart="327.05" departLane="best" from="-28038944" to="686196791#0"/>
    <trip id="bus116" type="bus_bus" depart="329.90" departLane="best" from="-678815703#3" to="-246124643#5"/>
    <trip id="bus117" type="bus_bus" depart="332.74" departLane="best" from="3662045" to="27946464#0"/>
    <trip id="bus118" type="bus_bus" depart="335.58" departLane="best" from="187808449#0" to="847193371#3"/>
    <trip id="bus119" type="bus_bus" depart="338.43" departLane="best" from="249681360" to="-119930269#1"/>
    <trip id="bus120" type="bus_bus" depart="341.27" departLane="best" from="-195972559" to="-171879650#0"/>
    <trip id="bus121" type="bus_bus" depart="344.12" departLane="best" from="-171594468#2" to="165030207"/>
    <trip id="bus122" type="bus_bus" depart="346.96" departLane="best" from="-28039379#1" to="187166624#7"/>
    <trip id="bus123" type="bus_bus" depart="349.80" departLane="best" from="27994860#1" to="-27944075#5"/>
    <trip id="bus124" type="bus_bus" depart="352.65" departLane="best" from="22948406#1" to="-28038943#0"/>
    <trip id="bus125" type="bus_bus" depart="355.49" departLane="best" from="155767479" to="550290209"/>
    <trip id="bus126" type="bus_bus" depart="358.34" departLane="best" from="378959094#1" to="-163566219#3"/>
    <trip id="bus127" type="bus_bus" depart="361.18" departLane="best" from="119926723#0" to="-28039919"/>
    <trip id="bus128" type="bus_bus" depart="364.02" departLane="best" from="-116583594#2" to="28038971"/>
    <trip id="bus129" type="bus_bus" depart="366.87" departLane="best" from="23118342#5" to="-28038936#5"/>
    <trip id="bus130" type="bus_bus" depart="369.71" departLane="best" from="28026221#2" to="163566238#2"/>
    <trip id="bus131" type="bus_bus" depart="372.56" departLane="best" from="121174581" to="-122066607#0"/>
    <trip id="bus132" type="bus_bus" depart="375.40" departLane="best" from="-163382987#1" to="4808622#4"/>
    <trip id="bus133" type="bus_bus" depart="378.24" departLane="best" from="3663337" to="171879635#4"/>
    <trip id="bus134" type="bus_bus" depart="381.09" departLane="best" from="-229049094#2" to="-187166622#1"/>
    <trip id="bus135" type="bus_bus" depart="383.93" departLane="best" from="-3650116#6" to="4910570#1"/>
    <trip id="bus136" type="bus_bus" depart="386.78" departLane="best" from="29460434#2" to="452551904"/>
    <trip id="bus137" type="bus_bus" depart="389.62" departLane="best" from="4910567#4" to="-27946853#0"/>
    <trip id="bus138" type="bus_bus" depart="392.46" departLane="best" from="-28037847" to="-169859207#1"/>
    <trip id="bus139" type="bus_bus" depart="395.31" departLane="best" from="28039470" to="4810769#5"/>
    <trip id="bus140" type="bus_bus" depart="398.15" departLane="best" from="-834267#2" to="197713174#2"/>
    <trip id="bus141" type="bus_bus" depart="401.00" departLane="best" from="-243047070#0" to="683333454#3"/>
    <trip id="bus142" type="bus_bus" depart="403.84" departLane="best" from="46256517#0" to="815410384"/>
    <trip id="bus143" type="bus_bus" depart="406.68" departLane="best" from="342942394#1" to="4794840#3"/>
    <trip id="bus144" type="bus_bus" depart="409.53" departLane="best" from="-154700686#5" to="28025124#0"/>
    <trip id="bus145" type="bus_bus" depart="412.37" departLane="best" from="-4721472#1" to="684014247#3"/>
    <trip id="bus146" type="bus_bus" depart="415.22" departLane="best" from="317949606#2" to="46346749"/>
    <trip id="bus147" type="bus_bus" depart="418.06" departLane="best" from="342942394#1" to="-28038968"/>
    <trip id="bus148" type="bus_bus" depart="420.90" departLane="best" from="28078794#5" to="-171647092#3"/>
    <trip id="bus149" type="bus_bus" depart="423.75" departLane="best" from="-28008884#1" to="353468982#3"/>
    <trip id="bus150" type="bus_bus" depart="426.59" departLane="best" from="154687182#7" to="-3650041#3"/>
    <trip id="bus151" type="bus_bus" depart="429.43" departLane="best" from="29418991#1" to="-28011577#4"/>
    <trip id="bus152" type="bus_bus" depart="432.28" departLane="best" from="-145456123#1" to="-27942837#0"/>
    <trip id="bus153" type="bus_bus" depart="435.12" departLane="best" from="-4541848" to="46346752#0"/>
    <trip id="bus154" type="bus_bus" depart="437.97" departLane="best" from="798784" to="-28078587#0"/>
    <trip id="bus155" type="bus_bus" depart="440.81" departLane="best" from="242821394#2" to="-8056011"/>
    <trip id="bus156" type="bus_bus" depart="443.65" departLane="best" from="824491852" to="163383616#1"/>
    <trip id="bus157" type="bus_bus" depart="446.50" departLane="best" from="740757381#1" to="-171879650#0"/>
    <trip id="bus158" type="bus_bus" depart="449.34" departLane="best" from="79716958" to="-28038952"/>
    <trip id="bus159" type="bus_bus" depart="452.19" departLane="best" from="-171647092#3" to="122066624#1"/>
    <trip id="bus160" type="bus_bus" depart="455.03" departLane="best" from="28011550#1" to="-3697939"/>
    <trip id="bus161" type="bus_bus" depart="457.87" departLane="best" from="187166624#2" to="159131971"/>
    <trip id="bus162" type="bus_bus" depart="460.72" departLane="best" from="-79434383#1" to="171648203"/>
    <trip id="bus163" type="bus_bus" depart="463.56" departLane="best" from="-28038072#0" to="27946839#1"/>
    <trip id="bus164" type="bus_bus" depart="466.41" departLane="best" from="-113510054" to="672381827#1"/>
    <trip id="bus165" type="bus_bus" depart="469.25" departLane="best" from="163383616#3" to="28008876"/>
    <trip id="bus166" type="bus_bus" depart="472.09" departLane="best" from="28027792" to="27927957#0"/>
    <trip id="bus167" type="bus_bus" depart="474.94" departLane="best" from="-639129507#0" to="-159238325#0"/>
    <trip id="bus168" type="bus_bus" depart="477.78" departLane="best" from="260900807#3" to="-4721447#6"/>
    <trip id="bus169" type="bus_bus" depart="480.63" departLane="best" from="-3697918#6" to="398354891"/>
    <trip id="bus170" type="bus_bus" depart="483.47" departLane="best" from="28008452#1" to="-353468982#1"/>
    <trip id="bus171" type="bus_bus" depart="486.31" departLane="best" from="-187164860#6" to="119864857#1"/>
    <trip id="bus172" type="bus_bus" depart="489.16" departLane="best" from="75313243#1" to="27929296#0"/>
    <trip id="bus173" type="bus_bus" depart="492.00" departLane="best" from="4947758#0" to="196371315#0"/>
    <trip id="bus174" type="bus_bus" depart="494.85" departLane="best" from="-353468982#1" to="163566213#1"/>
    <trip id="bus175" type="bus_bus" depart="497.69" departLane="best" from="-100872801#0" to="-292642931"/>
    <trip id="bus176" type="bus_bus" depart="500.53" departLane="best" from="122044808#0" to="171750817#3"/>
    <trip id="bus177" type="bus_bus" depart="503.38" departLane="best" from="250129525#1" to="154695552#5"/>
    <trip id="bus178" type="bus_bus" depart="506.22" departLane="best" from="124570188#3" to="-27993918#0"/>
    <trip id="bus179" type="bus_bus" depart="509.07" departLane="best" from="154980824#2" to="4947755#6"/>
    <trip id="bus180" type="bus_bus" depart="511.91" departLane="best" from="29460434#1" to="-27252898#0"/>
    <trip id="bus181" type="bus_bus" depart="514.75" departLane="best" from="-163566186#0" to="159132002"/>
    <trip id="bus182" type="bus_bus" depart="517.60" departLane="best" from="229076198" to="-47441044#2"/>
    <trip id="bus183" type="bus_bus" depart="520.44" departLane="best" from="353468986#0" to="28037776#1"/>
    <trip id="bus184" type="bus_bus" depart="523.28" departLane="best" from="27927988#4" to="-28011515#8"/>
    <trip id="bus185" type="bus_bus" depart="526.13" departLane="best" from="-27943844" to="-154700686#3"/>
    <trip id="bus186" type="bus_bus" depart="528.97" departLane="best" from="-28028739#2" to="155105720#3"/>
    <trip id="bus187" type="bus_bus" depart="531.82" departLane="best" from="398354894#2" to="-163313151#4"/>
    <trip id="bus188" type="bus_bus" depart="534.66" departLane="best" from="-90542365#1" to="215668331#4"/>
    <trip id="bus189" type="bus_bus" depart="537.50" departLane="best" from="-27942898#3" to="27943807#2"/>
    <trip id="bus190" type="bus_bus" depart="540.35" departLane="best" from="155768983#1" to="-28028738#4"/>
    <trip id="bus191" type="bus_bus" depart="543.19" departLane="best" from="28037767#0" to="28038960#1"/>
    <trip id="bus192" type="bus_bus" depart="546.04" departLane="best" from="-171593597#2" to="121040348#2"/>
    <trip id="bus193" type="bus_bus" depart="548.88" departLane="best" from="-27928387#1" to="79707634#2"/>
    <trip id="bus194" type="bus_bus" depart="551.72" departLane="best" from="159132008#1" to="-156427719#2"/>
    <trip id="bus195" type="bus_bus" depart="554.57" departLane="best" from="-28037846#0" to="398354894#1"/>
    <trip id="bus196" type="bus_bus" depart="557.41" departLane="best" from="153213509#0" to="325259845"/>
    <trip id="bus197" type="bus_bus" depart="560.26" departLane="best" from="27207077#0" to="85618372#0"/>
    <trip id="bus198" type="bus_bus" depart="563.10" departLane="best" from="181919253#1" to="781765508"/>
    <trip id="bus199" type="bus_bus" depart="565.94" departLane="best" from="4818981#3" to="190774792"/>
    <trip id="bus200" type="bus_bus" depart="568.79" departLane="best" from="27996155#3" to="156466406#4"/>
    <trip id="bus201" type="bus_bus" depart="571.63" departLane="best" from="365007658#0" to="163566213#0"/>
    <trip id="bus202" type="bus_bus" depart="574.48" departLane="best" from="4910508#1" to="28028708"/>
    <trip id="bus203" type="bus_bus" depart="577.32" departLane="best" from="154986396#1" to="-28038924#1"/>
    <trip id="bus204" type="bus_bus" depart="580.16" departLane="best" from="-28037773" to="23315377"/>
    <trip id="bus205" type="bus_bus" depart="583.01" departLane="best" from="28038936#1" to="159238302#1"/>
    <trip id="bus206" type="bus_bus" depart="585.85" departLane="best" from="198727161#1" to="-28039426#3"/>
    <trip id="bus207" type="bus_bus" depart="588.70" departLane="best" from="-163382999#5" to="-28174535#1"/>
    <trip id="bus208" type="bus_bus" depart="591.54" departLane="best" from="-28039376" to="-400901672"/>
    <trip id="bus209" type="bus_bus" depart="594.38" departLane="best" from="163383626#1" to="-197713164#0"/>
    <trip id="bus210" type="bus_bus" depart="597.23" departLane="best" from="-28022454#4" to="27943766#1"/>
    <trip id="bus211" type="bus_bus" depart="600.07" departLane="best" from="27946710#3" to="-159132022"/>
    <trip id="bus212" type="bus_bus" depart="602.92" departLane="best" from="-834269#1" to="163566181#3"/>
    <trip id="bus214" type="bus_bus" depart="608.60" departLane="best" from="115559329#6" to="513403113#1"/>
    <trip id="bus215" type="bus_bus" depart="611.45" departLane="best" from="171879634" to="27943783#1"/>
    <trip id="bus216" type="bus_bus" depart="614.29" departLane="best" departSpeed="max" from="4375295" to="28038936#5"/>
    <trip id="bus217" type="bus_bus" depart="617.13" departLane="best" from="-75313258#3" to="-119926723#10"/>
    <trip id="bus218" type="bus_bus" depart="619.98" departLane="best" from="-4910567#7" to="28037924#1"/>
    <trip id="bus219" type="bus_bus" depart="622.82" departLane="best" from="403952815#2" to="787963823#3"/>
    <trip id="bus220" type="bus_bus" depart="625.67" departLane="best" from="113514776#0" to="28028738#4"/>
    <trip id="bus221" type="bus_bus" depart="628.51" departLane="best" from="163566191#1" to="187164860#7"/>
    <trip id="bus222" type="bus_bus" depart="631.35" departLane="best" from="-4721531#7" to="27929527#1"/>
    <trip id="bus223" type="bus_bus" depart="634.20" departLane="best" from="-825382103" to="-255565307#3"/>
    <trip id="bus224" type="bus_bus" depart="637.04" departLane="best" from="154700003" to="-187166624#0"/>
    <trip id="bus225" type="bus_bus" depart="639.89" departLane="best" from="197713167#0" to="-154986397#4"/>
    <trip id="bus226" type="bus_bus" depart="642.73" departLane="best" from="-79717033#2" to="169764726"/>
    <trip id="bus227" type="bus_bus" depart="645.57" departLane="best" from="-154986397#5" to="243050877#1"/>
    <trip id="bus228" type="bus_bus" depart="648.42" departLane="best" from="-27948100#2" to="-454356347"/>
    <trip id="bus229" type="bus_bus" depart="651.26" departLane="best" from="28038163#1" to="-75354224#1"/>
    <trip id="bus230" type="bus_bus" depart="654.11" departLane="best" from="28037776#0" to="366177937#1"/>
    <trip id="bus231" type="bus_bus" depart="656.95" departLane="best" from="-28037931" to="-163566156#1"/>
    <trip id="bus232" type="bus_bus" depart="659.79" departLane="best" from="-141271864#0" to="163566150#1"/>
    <trip id="bus233" type="bus_bus" depart="662.64" departLane="best" from="96398383#1" to="-4910567#6"/>
    <trip id="bus234" type="bus_bus" depart="665.48" departLane="best" from="24717311#1" to="28047771"/>
    <trip id="bus235" type="bus_bus" depart="668.33" departLane="best" from="24781758#4" to="28037925#2"/>
    <trip id="bus236" type="bus_bus" depart="671.17" departLane="best" from="781009289" to="-27943848"/>
    <trip id="bus237" type="bus_bus" depart="674.01" departLane="best" from="-144335316#0" to="-23315374#1"/>
    <trip id="bus238" type="bus_bus" depart="676.86" departLane="best" from="-184507819#1" to="27683075#3"/>
    <trip id="bus239" type="bus_bus" depart="679.70" departLane="best" from="168658891" to="-28008451#0"/>
    <trip id="bus240" type="bus_bus" depart="682.55" departLane="best" from="27943878#0" to="28038939#3"/>
    <trip id="bus241" type="bus_bus" depart="685.39" departLane="best" from="-26647651#4" to="187743562#3"/>
    <trip id="bus242" type="bus_bus" depart="688.23" departLane="best" from="28028736#3" to="-171879638"/>
    <trip id="bus243" type="bus_bus" depart="691.08" departLane="best" from="353468989#0" to="79824388"/>
    <trip id="bus244" type="bus_bus" depart="693.92" departLane="best" from="-171647092#1" to="-154981027#0"/>
    <trip id="bus245" type="bus_bus" depart="696.77" departLane="best" from="-3697903#4" to="27929296#0"/>
    <trip id="bus246" type="bus_bus" depart="699.61" departLane="best" from="79707635#0" to="-799717919"/>
    <trip id="bus247" type="bus_bus" depart="702.45" departLane="best" from="27994826#3" to="-163382990#1"/>
    <trip id="bus248" type="bus_bus" depart="705.30" departLane="best" from="-169251304#2" to="28039368#2"/>
    <trip id="bus249" type="bus_bus" depart="708.14" departLane="best" from="400296267#2" to="184507821"/>
    <trip id="bus250" type="bus_bus" depart="710.98" departLane="best" from="-181712551#1" to="833866#1"/>
    <trip id="bus251" type="bus_bus" depart="713.83" departLane="best" from="121174584#2" to="-684884460#5"/>
    <trip id="bus252" type="bus_bus" depart="716.67" departLane="best" from="156464695#2" to="-4810769#0"/>
    <trip id="bus253" type="bus_bus" depart="719.52" departLane="best" from="398354894#1" to="353941072#0"/>
    <trip id="bus255" type="bus_bus" depart="725.20" departLane="best" from="23089809#1" to="3650048#1"/>
    <trip id="bus257" type="bus_bus" depart="730.89" departLane="best" from="28022454#5" to="79824392"/>
    <trip id="bus258" type="bus_bus" depart="733.74" departLane="best" from="-28039369#2" to="342004300#0"/>
    <trip id="bus259" type="bus_bus" depart="736.58" departLane="best" from="163383614#6" to="155731407#0"/>
    <trip id="bus260" type="bus_bus" depart="739.42" departLane="best" from="122066620#0" to="28021639"/>
    <trip id="bus261" type="bus_bus" depart="742.27" departLane="best" from="-28038972#0" to="403952814#0"/>
    <trip id="bus262" type="bus_bus" depart="745.11" departLane="best" from="365007658#1" to="-163566191#5"/>
    <trip id="bus263" type="bus_bus" depart="747.96" departLane="best" from="154690856#0" to="187808456#4"/>
    <trip id="bus264" type="bus_bus" depart="750.80" departLane="best" from="-75313244#0" to="-155105720#3"/>
    <trip id="bus265" type="bus_bus" depart="753.64" departLane="best" from="400901674" to="-27929537#3"/>
    <trip id="bus266" type="bus_bus" depart="756.49" departLane="best" from="-27948100#5" to="30342456"/>
    <trip id="bus267" type="bus_bus" depart="759.33" departLane="best" from="-476659509#1" to="478922855"/>
    <trip id="bus268" type="bus_bus" depart="762.18" departLane="best" from="27943881#2" to="-28039591"/>
    <trip id="bus269" type="bus_bus" depart="765.02" departLane="best" from="-122066612#1" to="779160786"/>
    <trip id="bus270" type="bus_bus" depart="767.86" departLane="best" from="-163566186#5" to="28008878#2"/>
    <trip id="bus271" type="bus_bus" depart="770.71" departLane="best" from="155767482" to="28038073#2"/>
    <trip id="bus272" type="bus_bus" depart="773.55" departLane="best" from="27938171" to="246124646#1"/>
    <trip id="bus273" type="bus_bus" depart="776.40" departLane="best" from="155768295#2" to="28285082#1"/>
    <trip id="bus274" type="bus_bus" depart="779.24" departLane="best" from="-163566224#1" to="-28008883"/>
    <trip id="bus275" type="bus_bus" depart="782.08" departLane="best" from="27942630#0" to="-365007661"/>
    <trip id="bus276" type="bus_bus" depart="784.93" departLane="best" from="171750816#2" to="154986397#1"/>
    <trip id="bus277" type="bus_bus" depart="787.77" departLane="best" from="163382983#0" to="121173999#0"/>
    <trip id="bus278" type="bus_bus" depart="790.62" departLane="best" from="28028733#3" to="-4721472#2"/>