<?xml version="1.0" encoding="UTF-8"?>

<!-- generated on 01/14/21 17:24:48 by Eclipse SUMO duarouter Version 1.7.0
<configuration xmlns:xsi="http://www.w3.org/2001/XMLSchema-instance" xsi:noNamespaceSchemaLocation="http://sumo.dlr.de/xsd/duarouterConfiguration.xsd">

    <input>
        <net-file value="C:\Users\Cole\Sumo\2021-01-14-17-23-45\osm.net.xml"/>
        <route-files value="C:\Users\Cole\Sumo\2021-01-14-17-23-45\osm.truck.trips.xml"/>
    </input>

    <output>
        <output-file value="C:\Users\Cole\Sumo\2021-01-14-17-23-45\osm.truck.trips.xml.tmp"/>
        <write-trips value="true"/>
    </output>

    <time>
        <begin value="0"/>
        <end value="3600"/>
    </time>

    <report>
        <no-warnings value="true"/>
        <ignore-errors value="true"/>
        <no-step-log value="true"/>
    </report>

</configuration>
-->

<routes xmlns:xsi="http://www.w3.org/2001/XMLSchema-instance" xsi:noNamespaceSchemaLocation="http://sumo.dlr.de/xsd/routes_file.xsd">
    <vType id="truck_truck" vClass="truck"/>
    <trip id="truck0" type="truck_truck" depart="0.00" departLane="best" from="242821398#0" to="-154986397#6"/>
    <trip id="truck1" type="truck_truck" depart="1.43" departLane="best" from="-28039904#0" to="-28011532#3"/>
    <trip id="truck2" type="truck_truck" depart="2.86" departLane="best" from="28025124#4" to="27929320#1"/>
    <trip id="truck3" type="truck_truck" depart="4.29" departLane="best" departSpeed="max" from="4848962" to="-163566210#1"/>
    <trip id="truck4" type="truck_truck" depart="5.72" departLane="best" from="119928835#1" to="-155731249#10"/>
    <trip id="truck5" type="truck_truck" depart="7.15" departLane="best" from="-28008881#10" to="159131950"/>
    <trip id="truck6" type="truck_truck" depart="8.57" departLane="best" from="-155105720#3" to="-27943881#2"/>
    <trip id="truck7" type="truck_truck" depart="10.00" departLane="best" from="24781758#6" to="163566212#3"/>
    <trip id="truck8" type="truck_truck" depart="11.43" departLane="best" from="-28008999#0" to="172963287#2"/>
    <trip id="truck9" type="truck_truck" depart="12.86" departLane="best" from="342942394#0" to="-119928840"/>
    <trip id="truck10" type="truck_truck" depart="14.29" departLane="best" from="340208064#5" to="27943881#0"/>
    <trip id="truck11" type="truck_truck" depart="15.72" departLane="best" from="-480950595" to="-246124643#5"/>
    <trip id="truck12" type="truck_truck" depart="17.15" departLane="best" from="79707633" to="-478364357#0"/>
    <trip id="truck13" type="truck_truck" depart="18.58" departLane="best" from="-163566243#0" to="-168608383#3"/>
    <trip id="truck14" type="truck_truck" depart="20.01" departLane="best" from="396032313#1" to="187373213#0"/>
    <trip id="truck15" type="truck_truck" depart="21.44" departLane="best" from="341995776#1" to="28021640#1"/>
    <trip id="truck16" type="truck_truck" depart="22.87" departLane="best" from="-75354233#0" to="165524112#1"/>
    <trip id="truck17" type="truck_truck" depart="24.30" departLane="best" from="3650076#2" to="197713174#3"/>
    <trip id="truck18" type="truck_truck" depart="25.72" departLane="best" from="27946710#2" to="-156338957"/>
    <trip id="truck19" type="truck_truck" depart="27.15" departLane="best" from="-28020826#5" to="-314372947"/>
    <trip id="truck20" type="truck_truck" depart="28.58" departLane="best" from="-163566150#2" to="-28025126#1"/>
    <trip id="truck21" type="truck_truck" depart="30.01" departLane="best" from="232841960" to="-672381830"/>
    <trip id="truck22" type="truck_truck" depart="31.44" departLane="best" from="-684884460#6" to="-27948100#6"/>
    <trip id="truck23" type="truck_truck" depart="32.87" departLane="best" from="-28039366#1" to="732478288#1"/>
    <trip id="truck24" type="truck_truck" depart="34.30" departLane="best" from="24717311#1" to="190432831#1"/>
    <trip id="truck25" type="truck_truck" depart="35.73" departLane="best" from="-27927988#4" to="28020826#5"/>
    <trip id="truck26" type="truck_truck" depart="37.16" departLane="best" from="-255565307#6" to="-781570844#1"/>
    <trip id="truck27" type="truck_truck" depart="38.59" departLane="best" from="856282420#1" to="243050870#1"/>
    <trip id="truck28" type="truck_truck" depart="40.02" departLane="best" from="167121171#6" to="27931727#1"/>
    <trip id="truck29" type="truck_truck" depart="41.45" departLane="best" from="-28022454#4" to="-155731253#3"/>
    <trip id="truck30" type="truck_truck" depart="42.87" departLane="best" from="-279813901#1" to="75354233#1"/>
    <trip id="truck31" type="truck_truck" depart="44.30" departLane="best" from="47441103#1" to="-378559843#0"/>
    <trip id="truck32" type="truck_truck" depart="45.73" departLane="best" from="250134167#9" to="-799964#0"/>
    <trip id="truck33" type="truck_truck" depart="47.16" departLane="best" from="609613818" to="154689121#6"/>
    <trip id="truck34" type="truck_truck" depart="48.59" departLane="best" from="168658891" to="-28038945#0"/>
    <trip id="truck35" type="truck_truck" depart="50.02" departLane="best" from="171932877#0" to="4910569#1"/>
    <trip id="truck36" type="truck_truck" depart="51.45" departLane="best" from="-818516142#1" to="-28008883"/>
    <trip id="truck37" type="truck_truck" depart="52.88" departLane="best" from="930354#2" to="159131976#1"/>
    <trip id="truck38" type="truck_truck" depart="54.31" departLane="best" from="-163566222" to="-156340403"/>
    <trip id="truck39" type="truck_truck" depart="55.74" departLane="best" from="-171652558#1" to="215668331#0"/>
    <trip id="truck40" type="truck_truck" depart="57.17" departLane="best" from="28285079#0" to="121173999#1"/>
    <trip id="truck41" type="truck_truck" depart="58.60" departLane="best" from="90542365#4" to="163382992#1"/>
    <trip id="truck43" type="truck_truck" depart="61.45" departLane="best" from="-122066624#0" to="28008884#1"/>
    <trip id="truck44" type="truck_truck" depart="62.88" departLane="best" from="27930078#2" to="163566156#0"/>
    <trip id="truck45" type="truck_truck" depart="64.31" departLane="best" from="-28039366#0" to="243211510#2"/>
    <trip id="truck46" type="truck_truck" depart="65.74" departLane="best" from="-171879633#1" to="122110102#1"/>
    <trip id="truck48" type="truck_truck" depart="68.60" departLane="best" from="47441044#3" to="-28038952"/>
    <trip id="truck49" type="truck_truck" depart="70.03" departLane="best" from="156428064#0" to="-27929527#6"/>
    <trip id="truck50" type="truck_truck" depart="71.46" departLane="best" from="592775633#2" to="4721498#4"/>
    <trip id="truck51" type="truck_truck" depart="72.89" departLane="best" from="-353468982#0" to="243047070#1"/>
    <trip id="truck52" type="truck_truck" depart="74.32" departLane="best" from="28038924#3" to="163566181#0"/>
    <trip id="truck53" type="truck_truck" depart="75.75" departLane="best" from="28039469" to="163382998"/>
    <trip id="truck54" type="truck_truck" depart="77.17" departLane="best" from="-100872801#2" to="-4541847#1"/>
    <trip id="truck55" type="truck_truck" depart="78.60" departLane="best" from="-144786848#4" to="682060087"/>
    <trip id="truck56" type="truck_truck" depart="80.03" departLane="best" from="47441387#2" to="3662045"/>
    <trip id="truck57" type="truck_truck" depart="81.46" departLane="best" from="-3662036#1" to="-159131996#0"/>
    <trip id="truck58" type="truck_truck" depart="82.89" departLane="best" from="47441323" to="779127909#0"/>
    <trip id="truck59" type="truck_truck" depart="84.32" departLane="best" from="-163566194#3" to="155768299#0"/>
    <trip id="truck60" type="truck_truck" depart="85.75" departLane="best" from="28038937#0" to="-187746138#1"/>
    <trip id="truck61" type="truck_truck" depart="87.18" departLane="best" from="155729948#0" to="163566243#2"/>
    <trip id="truck62" type="truck_truck" depart="88.61" departLane="best" from="-28038960#0" to="4721521#1"/>
    <trip id="truck63" type="truck_truck" depart="90.04" departLane="best" from="121040348#0" to="-27994826#2"/>
    <trip id="truck64" type="truck_truck" depart="91.47" departLane="best" from="163566156#1" to="28021640#2"/>
    <trip id="truck65" type="truck_truck" depart="92.90" departLane="best" from="-27944075#1" to="-3697941#1"/>
    <trip id="truck66" type="truck_truck" depart="94.32" departLane="best" from="122169417#1" to="159238297"/>
    <trip id="truck67" type="truck_truck" depart="95.75" departLane="best" from="-184507812#0" to="-28011577#11"/>
    <trip id="truck68" type="truck_truck" depart="97.18" departLane="best" from="-478364357#0" to="172858480#0"/>
    <trip id="truck69" type="truck_truck" depart="98.61" departLane="best" from="-28022559#1" to="-28009000"/>
    <trip id="truck70" type="truck_truck" depart="100.04" departLane="best" from="-163313151#4" to="22961324#4"/>
    <trip id="truck71" type="truck_truck" depart="101.47" departLane="best" from="448650191" to="-163313151#4"/>
    <trip id="truck72" type="truck_truck" depart="102.90" departLane="best" from="-28027988#1" to="27927957#2"/>
    <trip id="truck73" type="truck_truck" depart="104.33" departLane="best" from="-27994829#8" to="-195972010#2"/>
    <trip id="truck74" type="truck_truck" depart="105.76" departLane="best" from="694202752#0" to="171646127#0"/>
    <trip id="truck75" type="truck_truck" depart="107.19" departLane="best" from="154986397#6" to="28078794#2"/>
    <trip id="truck76" type="truck_truck" depart="108.62" departLane="best" from="341995777#2" to="-27942667#1"/>
    <trip id="truck77" type="truck_truck" depart="110.05" departLane="best" from="-168608383#3" to="122066624#0"/>
    <trip id="truck78" type="truck_truck" depart="111.47" departLane="best" from="28013729#2" to="27929143#0"/>
    <trip id="truck79" type="truck_truck" depart="112.90" departLane="best" from="834267#3" to="-168658891"/>
    <trip id="truck80" type="truck_truck" depart="114.33" departLane="best" from="-834267#0" to="-4810769#3"/>
    <trip id="truck81" type="truck_truck" depart="115.76" departLane="best" from="4541973#1" to="-28037925#3"/>
    <trip id="truck82" type="truck_truck" depart="117.19" departLane="best" from="-27942630#2" to="145436383"/>
    <trip id="truck83" type="truck_truck" depart="118.62" departLane="best" from="119928835#1" to="-28078794#4"/>
    <trip id="truck84" type="truck_truck" depart="120.05" departLane="best" from="-28037929" to="662332135"/>
    <trip id="truck85" type="truck_truck" depart="121.48" departLane="best" from="141271792#0" to="4541973#8"/>
    <trip id="truck86" type="truck_truck" depart="122.91" departLane="best" from="163566224#2" to="-159131934#1"/>
    <trip id="truck87" type="truck_truck" depart="124.34" departLane="best" from="96397280#2" to="3697918#0"/>
    <trip id="truck88" type="truck_truck" depart="125.77" departLane="best" from="799961#2" to="674004072"/>
    <trip id="truck89" type="truck_truck" depart="127.20" departLane="best" from="398354894#1" to="-27207077#3"/>
    <trip id="truck90" type="truck_truck" depart="128.62" departLane="best" from="155767485#0" to="-27994829#8"/>
    <trip id="truck91" type="truck_truck" depart="130.05" departLane="best" from="-825764716#0" to="-159132001#0"/>
    <trip id="truck92" type="truck_truck" depart="131.48" departLane="best" from="-77534588#0" to="834269#1"/>
    <trip id="truck93" type="truck_truck" depart="132.91" departLane="best" from="-28038960#1" to="28078736#1"/>
    <trip id="truck94" type="truck_truck" depart="134.34" departLane="best" from="153885142#0" to="121174584#1-AddedOnRampEdge"/>
    <trip id="truck95" type="truck_truck" depart="135.77" departLane="best" from="79707633" to="90542358"/>
    <trip id="truck96" type="truck_truck" depart="137.20" departLane="best" from="167121162#3" to="28008878#2"/>
    <trip id="truck97" type="truck_truck" depart="138.63" departLane="best" from="-243446629#2" to="-353071427#0"/>
    <trip id="truck98" type="truck_truck" depart="140.06" departLane="best" from="-159131984" to="172067277#5"/>
    <trip id="truck100" type="truck_truck" depart="142.92" departLane="best" from="-163566156#0" to="-27931733"/>
    <trip id="truck101" type="truck_truck" depart="144.35" departLane="best" from="184507807#2" to="27929270#1"/>
    <trip id="truck102" type="truck_truck" depart="145.77" departLane="best" from="-28027253" to="-184507808#1"/>
    <trip id="truck103" type="truck_truck" depart="147.20" departLane="best" from="4818942#9" to="-28037780#0"/>
    <trip id="truck104" type="truck_truck" depart="148.63" departLane="best" from="119868797#1" to="172066751"/>
    <trip id="truck105" type="truck_truck" depart="150.06" departLane="best" from="159238323#0" to="700814710#1"/>
    <trip id="truck106" type="truck_truck" depart="151.49" departLane="best" from="-27946710#0" to="27996155#0"/>
    <trip id="truck107" type="truck_truck" depart="152.92" departLane="best" from="-28028731#0" to="-799964#1"/>
    <trip id="truck108" type="truck_truck" depart="154.35" departLane="best" from="27928340#0" to="-353916156#0"/>
    <trip id="truck109" type="truck_truck" depart="155.78" departLane="best" from="-378559843#0" to="28037924#1"/>
    <trip id="truck110" type="truck_truck" depart="157.21" departLane="best" from="-163382987#0" to="-27994829#4"/>
    <trip id="truck111" type="truck_truck" depart="158.64" departLane="best" from="-28038960#1" to="686196791#4"/>
    <trip id="truck112" type="truck_truck" depart="160.07" departLane="best" from="-684884460#1" to="-24781758#5"/>
    <trip id="truck113" type="truck_truck" depart="161.50" departLane="best" from="3663340#0" to="27946710#1"/>
    <trip id="truck114" type="truck_truck" depart="162.92" departLane="best" from="190432831#4" to="847193371#3"/>
    <trip id="truck115" type="truck_truck" depart="164.35" departLane="best" from="250134166" to="-122044806"/>
    <trip id="truck116" type="truck_truck" depart="165.78" departLane="best" from="26498408" to="75313244#1"/>
    <trip id="truck117" type="truck_truck" depart="167.21" departLane="best" from="-196371314#2" to="-172067277#7"/>
    <trip id="truck118" type="truck_truck" depart="168.64" departLane="best" from="-171647548#0" to="167121162#0"/>
    <trip id="truck119" type="truck_truck" depart="170.07" departLane="best" from="-28039391#2" to="187743562#3"/>
    <trip id="truck120" type="truck_truck" depart="171.50" departLane="best" from="27996155#3" to="-27946704"/>
    <trip id="truck121" type="truck_truck" depart="172.93" departLane="best" from="23100865#4" to="-28038954#1"/>
    <trip id="truck122" type="truck_truck" depart="174.36" departLane="best" from="155768449#2" to="558493043"/>
    <trip id="truck123" type="truck_truck" depart="175.79" departLane="best" from="383042884#2" to="-163566238#4"/>
    <trip id="truck124" type="truck_truck" depart="177.22" departLane="best" from="121040348#3" to="-28059218#5"/>
    <trip id="truck125" type="truck_truck" depart="178.65" departLane="best" from="-119864857#0" to="28039368#3"/>
    <trip id="truck126" type="truck_truck" depart="180.07" departLane="best" from="23315379" to="-28038942"/>
    <trip id="truck127" type="truck_truck" depart="181.50" departLane="best" from="-163382999#2" to="4810769#2"/>
    <trip id="truck128" type="truck_truck" depart="182.93" departLane="best" from="497247194#0" to="163566213#3"/>
    <trip id="truck129" type="truck_truck" depart="184.36" departLane="best" from="-23100865#4" to="-187373858#1"/>
    <trip id="truck130" type="truck_truck" depart="185.79" departLane="best" from="-3663345#3" to="4947753#2"/>
    <trip id="truck131" type="truck_truck" depart="187.22" departLane="best" from="30095292" to="4541973#2"/>
    <trip id="truck132" type="truck_truck" depart="188.65" departLane="best" from="4910569#0" to="-27948407#0"/>
    <trip id="truck133" type="truck_truck" depart="190.08" departLane="best" from="-28037928#0" to="-170800044#1"/>
    <trip id="truck134" type="truck_truck" depart="191.51" departLane="best" from="28039945" to="4811216#1"/>
    <trip id="truck135" type="truck_truck" depart="192.94" departLane="best" from="-85618379" to="198725549#0"/>
    <trip id="truck136" type="truck_truck" depart="194.37" departLane="best" from="-243446629#1" to="684014246"/>
    <trip id="truck137" type="truck_truck" depart="195.80" departLane="best" from="46346750" to="818320885"/>
    <trip id="truck139" type="truck_truck" depart="198.65" departLane="best" from="-154986397#4" to="28025129"/>
    <trip id="truck140" type="truck_truck" depart="200.08" departLane="best" from="-4721518" to="684884460#1"/>
    <trip id="truck141" type="truck_truck" depart="201.51" departLane="best" from="325259859#2" to="464379996"/>
    <trip id="truck142" type="truck_truck" depart="202.94" departLane="best" from="342942399#0" to="-28039368#2"/>
    <trip id="truck143" type="truck_truck" depart="204.37" departLane="best" from="28081598#2" to="-171648204#2"/>
    <trip id="truck144" type="truck_truck" depart="205.80" departLane="best" from="4721502#1" to="448813839"/>
    <trip id="truck145" type="truck_truck" depart="207.23" departLane="best" from="-28011515#5" to="353468988#0"/>
    <trip id="truck146" type="truck_truck" depart="208.66" departLane="best" from="154689121#3" to="-3661460#2"/>
    <trip id="truck147" type="truck_truck" depart="210.09" departLane="best" from="30076065#1" to="-28022453#0"/>
    <trip id="truck148" type="truck_truck" depart="211.52" departLane="best" from="-154981027#1" to="-27943777#0"/>
    <trip id="truck149" type="truck_truck" depart="212.95" departLane="best" from="-4685207#1" to="464545491#0"/>
    <trip id="truck150" type="truck_truck" depart="214.37" departLane="best" from="798950#0" to="-28078795#2"/>
    <trip id="truck151" type="truck_truck" depart="215.80" departLane="best" from="243050870#1" to="-828579403"/>
    <trip id="truck152" type="truck_truck" depart="217.23" departLane="best" from="824491852" to="163383627#2"/>
    <trip id="truck153" type="truck_truck" depart="218.66" departLane="best" from="740757381#3" to="-172067277#6"/>
    <trip id="truck154" type="truck_truck" depart="220.09" departLane="best" from="799969#1" to="-27929527#5"/>
    <trip id="truck155" type="truck_truck" depart="221.52" departLane="best" from="79717033#0" to="-28038970#1"/>
    <trip id="truck156" type="truck_truck" depart="222.95" departLane="best" from="-171648204#2" to="122110082#2"/>
    <trip id="truck157" type="truck_truck" depart="224.38" departLane="best" from="187373213#2" to="159131995"/>
    <trip id="truck158" type="truck_truck" depart="225.81" departLane="best" from="-79707629" to="171750816#0"/>
    <trip id="truck159" type="truck_truck" depart="227.24" departLane="best" from="-28038115#3" to="27948100#0"/>
    <trip id="truck160" type="truck_truck" depart="228.67" departLane="best" from="-113510054" to="672381831#1"/>
    <trip id="truck161" type="truck_truck" depart="230.09" departLane="best" from="163566150#0" to="28008881#3"/>
    <trip id="truck162" type="truck_truck" depart="231.52" departLane="best" from="28027800#1" to="27928004#1"/>
    <trip id="truck163" type="truck_truck" depart="232.95" departLane="best" from="26647651#2" to="-4721502#6"/>
    <trip id="truck164" type="truck_truck" depart="234.38" departLane="best" from="-37077798#1" to="400296267#1"/>
    <trip id="truck165" type="truck_truck" depart="235.81" departLane="best" from="28008880" to="-353919596"/>
    <trip id="truck166" type="truck_truck" depart="237.24" departLane="best" from="-36894917#1" to="-90542344#0"/>
    <trip id="truck167" type="truck_truck" depart="238.67" departLane="best" from="-833866#1" to="-353071419#1"/>
    <trip id="truck168" type="truck_truck" depart="240.10" departLane="best" from="-187166624#6" to="119928835#3"/>
    <trip id="truck169" type="truck_truck" depart="241.53" departLane="best" from="75313244#1" to="27929527#1"/>
    <trip id="truck170" type="truck_truck" depart="242.96" departLane="best" from="4947765" to="196376299#6"/>
    <trip id="truck171" type="truck_truck" depart="244.39" departLane="best" from="-353916158" to="163566224#0"/>
    <trip id="truck172" type="truck_truck" depart="245.82" departLane="best" from="-100872801#0" to="-30342456"/>
    <trip id="truck173" type="truck_truck" depart="247.24" departLane="best" from="122066613#2" to="171879635#4"/>
    <trip id="truck174" type="truck_truck" depart="248.67" departLane="best" from="137910007" to="-27994829#8"/>
    <trip id="truck175" type="truck_truck" depart="250.10" departLane="best" from="155105718#4" to="4947758#2"/>
    <trip id="truck176" type="truck_truck" depart="251.53" departLane="best" from="30076496#3" to="-27927957#1"/>
    <trip id="truck177" type="truck_truck" depart="252.96" departLane="best" from="-163566191#3" to="159132020#2"/>
    <trip id="truck178" type="truck_truck" depart="254.39" departLane="best" from="22961324#6" to="-47441387#0"/>
    <trip id="truck179" type="truck_truck" depart="255.82" departLane="best" from="353468994" to="28037848#0"/>
    <trip id="truck180" type="truck_truck" depart="257.25" departLane="best" from="27928387#0" to="-28011577#1"/>
    <trip id="truck181" type="truck_truck" depart="258.68" departLane="best" from="-27943881#1" to="-154986397#1"/>
    <trip id="truck182" type="truck_truck" depart="260.11" departLane="best" from="-28037767#0" to="155729952#1"/>
    <trip id="truck183" type="truck_truck" depart="261.54" departLane="best" from="100872801#3" to="229076200#1"/>
    <trip id="truck184" type="truck_truck" depart="262.97" departLane="best" from="156338938#0" to="-28037764#0"/>
    <trip id="truck186" type="truck_truck" depart="265.82" departLane="best" from="-27929143#8" to="79707635#0"/>
    <trip id="truck187" type="truck_truck" depart="267.25" departLane="best" from="-28037925#3" to="400901267#1"/>
    <trip id="truck188" type="truck_truck" depart="268.68" departLane="best" from="27605676#2" to="85618372#2"/>
    <trip id="truck189" type="truck_truck" depart="270.11" departLane="best" from="184507807#4" to="781830450#2"/>
    <trip id="truck190" type="truck_truck" depart="271.54" departLane="best" from="4845308#1" to="196371314#0"/>
    <trip id="truck191" type="truck_truck" depart="272.97" departLane="best" from="28008878#2" to="159131947"/>
    <trip id="truck192" type="truck_truck" depart="274.40" departLane="best" from="3650116#3" to="163566224#0"/>
    <trip id="truck193" type="truck_truck" depart="275.83" departLane="best" from="4910564#6" to="28028733#5"/>
    <trip id="truck194" type="truck_truck" depart="277.26" departLane="best" from="155729943#1" to="-28038936#1"/>
    <trip id="truck195" type="truck_truck" depart="278.69" departLane="best" from="-28037846#1" to="242821394#1"/>
    <trip id="truck196" type="truck_truck" depart="280.12" departLane="best" from="28038937#0" to="159238324#2"/>
    <trip id="truck197" type="truck_truck" depart="281.54" departLane="best" from="206554001" to="-28039904#1"/>
    <trip id="truck198" type="truck_truck" depart="282.97" departLane="best" from="-163383614#4" to="-294963698#0"/>
    <trip id="truck199" type="truck_truck" depart="284.40" departLane="best" from="-28039387#1" to="-403952814#1"/>
    <trip id="truck200" type="truck_truck" depart="285.83" departLane="best" from="163566156#7" to="-198647720#1"/>
    <trip id="truck201" type="truck_truck" depart="287.26" departLane="best" from="-28022566#0" to="27943785#2"/>
    <trip id="truck202" type="truck_truck" depart="288.69" departLane="best" from="-856282420#3" to="163566194#3"/>
    <trip id="truck203" type="truck_truck" depart="290.12" departLane="best" from="115559329#1" to="-27946745#0"/>
    <trip id="truck204" type="truck_truck" depart="291.55" departLane="best" from="171879650#0" to="27943833#2"/>
    <trip id="truck205" type="truck_truck" depart="292.98" departLane="best" from="447040861#0" to="28038939#4"/>
    <trip id="truck206" type="truck_truck" depart="294.41" departLane="best" from="-4947755#0" to="28037929"/>
    <trip id="truck207" type="truck_truck" depart="295.84" departLane="best" from="404831642" to="79434383#0"/>
    <trip id="truck208" type="truck_truck" depart="297.27" departLane="best" from="119868797#0" to="28028741#8"/>
    <trip id="truck209" type="truck_truck" depart="298.69" departLane="best" from="163566210#1" to="187372887#5"/>
    <trip id="truck210" type="truck_truck" depart="300.12" departLane="best" from="-47441320#0" to="27929913#3"/>
    <trip id="truck211" type="truck_truck" depart="301.55" departLane="best" from="-842034384#0" to="-26647715#0"/>
    <trip id="truck212" type="truck_truck" depart="302.98" departLane="best" from="154830522#3" to="-187743562#0"/>
    <trip id="truck213" type="truck_truck" depart="304.41" departLane="best" from="198725310#0" to="-155107350#0"/>
    <trip id="truck214" type="truck_truck" depart="305.84" departLane="best" from="-798779#0" to="170156790#1"/>
    <trip id="truck215" type="truck_truck" depart="307.27" departLane="best" from="-155107350#1" to="246124643#3"/>
    <trip id="truck216" type="truck_truck" depart="308.70" departLane="best" from="-197713163#0" to="154695552#5"/>
    <trip id="truck217" type="truck_truck" depart="310.13" departLane="best" from="-27993917#0" to="-4685207#1"/>
    <trip id="truck219" type="truck_truck" depart="312.99" departLane="best" from="28037847" to="3663326#1"/>
    <trip id="truck220" type="truck_truck" depart="314.42" departLane="best" from="-28038070#2" to="-163566171#0"/>
    <trip id="truck221" type="truck_truck" depart="315.84" departLane="best" from="-144786848#3" to="163566181#0"/>
    <trip id="truck222" type="truck_truck" depart="317.27" departLane="best" from="96398383#1" to="-4947754#5"/>
    <trip id="truck223" type="truck_truck" depart="318.70" departLane="best" from="24781758#8" to="28059218#4"/>
    <trip id="truck224" type="truck_truck" depart="320.13" departLane="best" from="249112990#0" to="28037933#1"/>
    <trip id="truck225" type="truck_truck" depart="321.56" departLane="best" from="781570844#0" to="-27943883#2"/>
    <trip id="truck226" type="truck_truck" depart="322.99" departLane="best" from="-145038300" to="-243048595"/>
    <trip id="truck227" type="truck_truck" depart="324.42" departLane="best" from="-187166622#1" to="27927988#1"/>
    <trip id="truck228" type="truck_truck" depart="325.85" departLane="best" from="169850261" to="-28008881#0"/>
    <trip id="truck229" type="truck_truck" depart="327.28" departLane="best" from="27943883#0" to="28038944"/>
    <trip id="truck230" type="truck_truck" depart="328.71" departLane="best" from="-27255142#0" to="187808449#1"/>
    <trip id="truck231" type="truck_truck" depart="330.14" departLane="best" from="28028741#3" to="-171932877#2"/>
    <trip id="truck232" type="truck_truck" depart="331.57" departLane="best" from="353898756#1" to="79824390#0"/>
    <trip id="truck233" type="truck_truck" depart="332.99" departLane="best" from="-171648204#0" to="-155105717#4"/>
    <trip id="truck234" type="truck_truck" depart="334.42" departLane="best" from="-3697933#1" to="27929527#2"/>
    <trip id="truck235" type="truck_truck" depart="335.85" departLane="best" from="27994829#7" to="-163383000"/>
    <trip id="truck236" type="truck_truck" depart="337.28" departLane="best" from="27942667#0" to="215668330#1"/>
    <trip id="truck237" type="truck_truck" depart="338.71" departLane="best" from="-170232710#0" to="28039373"/>
    <trip id="truck238" type="truck_truck" depart="340.14" departLane="best" from="400902603#1" to="187164860#3"/>
    <trip id="truck239" type="truck_truck" depart="341.57" departLane="best" from="28059227#1" to="-4910567#2"/>
    <trip id="truck240" type="truck_truck" depart="343.00" departLane="best" from="122066609#3" to="-686732258#1"/>
    <trip id="truck241" type="truck_truck" depart="344.43" departLane="best" from="159131940#2" to="-4816289#1"/>
    <trip id="truck242" type="truck_truck" depart="345.86" departLane="best" from="400901267#1" to="354342665#0"/>
    <trip id="truck243" type="truck_truck" depart="347.29" departLane="best" from="-171594468#4" to="79716895#1"/>
    <trip id="truck244" type="truck_truck" depart="348.72" departLane="best" from="231824422#2" to="365007661"/>
    <trip id="truck245" type="truck_truck" depart="350.14" departLane="best" from="27946745#0" to="122110110#3"/>
    <trip id="truck246" type="truck_truck" depart="351.57" departLane="best" from="28022561" to="79824394"/>
    <trip id="truck247" type="truck_truck" depart="353.00" departLane="best" from="-28039378#1" to="342942393"/>
    <trip id="truck248" type="truck_truck" depart="354.43" departLane="best" from="163383627#0" to="155767479"/>
    <trip id="truck249" type="truck_truck" depart="355.86" departLane="best" from="122110077#2" to="28022454#3"/>
    <trip id="truck250" type="truck_truck" depart="357.29" departLane="best" from="-28039370#0" to="403953557#1"/>
    <trip id="truck251" type="truck_truck" depart="358.72" departLane="best" from="3650116#4" to="-163566210#0"/>
    <trip id="truck252" type="truck_truck" depart="360.15" departLane="best" from="4794841#2" to="-28037665"/>
    <trip id="truck253" type="truck_truck" depart="361.58" departLane="best" from="154700012#1" to="190774792"/>
    <trip id="truck254" type="truck_truck" depart="363.01" departLane="best" from="-77534588#1" to="-155729949#2"/>
    <trip id="truck255" type="truck_truck" depart="364.44" departLane="best" from="402534350" to="-27930078#5"/>
    <trip id="truck256" type="truck_truck" depart="365.87" departLane="best" from="-27993918#1" to="310954463#0"/>
    <trip id="truck257" type="truck_truck" depart="367.29" departLane="best" from="-480950595" to="4794840#3"/>
    <trip id="truck258" type="truck_truck" depart="368.72" departLane="best" from="27944075#1" to="-28059218#3"/>
    <trip id="truck259" type="truck_truck" depart="370.15" departLane="best" from="-122066617#3" to="779160788"/>
    <trip id="truck260" type="truck_truck" depart="371.58" departLane="best" from="-163566194#3" to="28008881#9"/>