<routes>
            <vType id="electricvehicle" accel="0.8" decel="4.5" sigma="0.5" minGap="2.5" maxSpeed="40" guiShape="passenger" emissionClass="Energy/unknown">
                     <param key="has.battery.device" value="true"/>
                     <param key="maximumBatteryCapacity" value="200"/>
                     <param key="maximumPower" value="1000"/>
                     <param key="vehicleMass" value="10000"/>
                     <param key="frontSurfaceArea" value="5"/>
                     <param key="airDragCoefficient" value="0.6"/>
                     <param key="internalMomentOfInertia" value="0.01"/>
                     <param key="radialDragCoefficient" value="0.5"/>
                     <param key="rollDragCoefficient" value="0.01"/>
                     <param key="constantPowerIntake" value="100"/>
                     <param key="propulsionEfficiency" value="0.9"/>
                     <param key="recuperationEfficiency" value="0.9"/>
                     <param key="stoppingTreshold" value="0.1"/>
             </vType>
</routes>
