<?xml version="1.0" encoding="UTF-8"?>

<!-- generated on 03/10/21 17:02:09 by Eclipse SUMO duarouter Version 1.7.0
<configuration xmlns:xsi="http://www.w3.org/2001/XMLSchema-instance" xsi:noNamespaceSchemaLocation="http://sumo.dlr.de/xsd/duarouterConfiguration.xsd">

    <input>
        <net-file value="data/EVGrid.net.xml"/>
        <route-files value="trips.trips.xml"/>
    </input>

    <output>
        <output-file value="data/electricvehicles.rou.xml"/>
        <alternatives-output value="data/electricvehicles.rou.alt.xml"/>
    </output>

    <time>
        <begin value="0"/>
        <end value="10"/>
    </time>

    <report>
        <no-warnings value="true"/>
        <ignore-errors value="true"/>
        <no-step-log value="true"/>
    </report>

</configuration>
-->

<routes xmlns:xsi="http://www.w3.org/2001/XMLSchema-instance" xsi:noNamespaceSchemaLocation="http://sumo.dlr.de/xsd/routes_file.xsd">
    <vehicle id="V0.0" depart="0.00">
        <route edges="-gneE53 gneE54 gneE59 gneE68 -gneE65"/>
    </vehicle>
    <vehicle id="V1.0" depart="0.00">
        <route edges="gneE85 gneE79 gneE59 gneE68 gneE66"/>
    </vehicle>
    <vehicle id="V10.0" depart="0.00">
        <route edges="-gneE71 -gneE57 -gneE79 -gneE78 -gneE46 -gneE53"/>
    </vehicle>
    <vehicle id="V11.0" depart="0.00">
        <route edges="gneE54 gneE57 gneE71 -gneE61"/>
    </vehicle>
    <vehicle id="V12.0" depart="0.00">
        <route edges="gneE60 gneE61 -gneE71 -gneE57 -gneE54 -gneE52 -gneE51"/>
    </vehicle>
    <vehicle id="V13.0" depart="0.00">
        <route edges="-gneE68 -gneE59 gneE57 -gneE50 -gneE49"/>
    </vehicle>
    <vehicle id="V14.0" depart="0.00">
        <route edges="gneE69 gneE65 gneE66 gneE67 -gneE47 gneE83 gneE84 gneE85"/>
    </vehicle>
    <vehicle id="V15.0" depart="0.00">
        <route edges="-gneE68 -gneE48 -gneE47 -gneE46 -gneE53"/>
    </vehicle>
    <vehicle id="V16.0" depart="0.00">
        <route edges="gneE71 -gneE61 -gneE60 gneE52 gneE53 gneE46 gneE47"/>
    </vehicle>
    <vehicle id="V17.0" depart="0.00">
        <route edges="-gneE78 gneE83 gneE84 gneE85 gneE79 gneE57"/>
    </vehicle>
    <vehicle id="V18.0" depart="0.00">
        <route edges="-gneE47 gneE83 gneE84 gneE85 -gneE78 gneE47 gneE48 -gneE59"/>
    </vehicle>
    <vehicle id="V19.0" depart="0.00">
        <route edges="-gneE79 -gneE78 gneE83 gneE84 gneE85 gneE79"/>
    </vehicle>
    <vehicle id="V2.0" depart="0.00">
        <route edges="gneE71 gneE62 -gneE70 -gneE49 -gneE48 -gneE47 gneE78 gneE79"/>
    </vehicle>
    <vehicle id="V20.0" depart="0.00">
        <route edges="-gneE79 -gneE78 -gneE46 -gneE53"/>
    </vehicle>
    <vehicle id="V21.0" depart="0.00">
        <route edges="gneE79 -gneE54 gneE53 gneE46 gneE47"/>
    </vehicle>
    <vehicle id="V22.0" depart="0.00">
        <route edges="gneE59 gneE68"/>
    </vehicle>
    <vehicle id="V23.0" depart="0.00">
        <route edges="-gneE78 gneE47 gneE48"/>
    </vehicle>
    <vehicle id="V24.0" depart="0.00">
        <route edges="gneE49 gneE70 gneE63 gneE64 -gneE69 -gneE49"/>
    </vehicle>
    <vehicle id="V25.0" depart="0.00">
        <route edges="gneE69 gneE65 gneE66 gneE67 -gneE47 -gneE46 -gneE53 gneE54"/>
    </vehicle>
    <vehicle id="V26.0" depart="0.00">
        <route edges="-gneE66 -gneE68 -gneE59 gneE57"/>
    </vehicle>
    <vehicle id="V27.0" depart="0.00">
        <route edges="gneE61 gneE62 -gneE70 gneE69 -gneE64 -gneE63"/>
    </vehicle>
    <vehicle id="V28.0" depart="0.00">
        <route edges="-gneE69 -gneE49 -gneE48 -gneE47 -gneE46"/>
    </vehicle>
    <vehicle id="V29.0" depart="0.00">
        <route edges="gneE47 gneE48 -gneE59 -gneE79 -gneE78 gneE83 gneE84 gneE85 gneE79"/>
    </vehicle>
    <vehicle id="V3.0" depart="0.00">
        <route edges="-gneE70 -gneE49 -gneE59 -gneE54 -gneE52"/>
    </vehicle>
    <vehicle id="V30.0" depart="0.00">
        <route edges="-gneE50 gneE69"/>
    </vehicle>
    <vehicle id="V31.0" depart="0.00">
        <route edges="-gneE53 gneE54 gneE59 gneE49"/>
    </vehicle>
    <vehicle id="V32.0" depart="0.00">
        <route edges="gneE64 gneE65 -gneE68 gneE49 gneE69 -gneE64 -gneE63"/>
    </vehicle>
    <vehicle id="V33.0" depart="0.00">
        <route edges="gneE47 -gneE67 -gneE66 -gneE65 -gneE64 -gneE63 -gneE70"/>
    </vehicle>
    <vehicle id="V34.0" depart="0.00">
        <route edges="gneE61 gneE62 -gneE70 -gneE49"/>
    </vehicle>
    <vehicle id="V35.0" depart="0.00">
        <route edges="gneE54 gneE57 gneE51 gneE60 gneE61"/>
    </vehicle>
    <vehicle id="V36.0" depart="0.00">
        <route edges="-gneE66 -gneE65 -gneE64 -gneE63"/>
    </vehicle>
    <vehicle id="V37.0" depart="0.00">
        <route edges="gneE60 gneE61 gneE62 -gneE70 gneE50 gneE71"/>
    </vehicle>
    <vehicle id="V38.0" depart="0.00">
        <route edges="gneE67 -gneE47 gneE78 gneE79 gneE57 gneE71 gneE62 -gneE70"/>
    </vehicle>
    <vehicle id="V39.0" depart="0.00">
        <route edges="-gneE60 gneE52 gneE53 gneE46 gneE83"/>
    </vehicle>
    <vehicle id="V4.0" depart="0.00">
        <route edges="-gneE48 -gneE47 gneE78 gneE79 gneE59"/>
    </vehicle>
    <vehicle id="V40.0" depart="0.00">
        <route edges="-gneE50 -gneE49 gneE68 -gneE65"/>
    </vehicle>
    <vehicle id="V41.0" depart="0.00">
        <route edges="-gneE57 gneE59"/>
    </vehicle>
    <vehicle id="V42.0" depart="0.00">
        <route edges="gneE49 gneE50 -gneE57 gneE59"/>
    </vehicle>
    <vehicle id="V43.0" depart="0.00">
        <route edges="-gneE70 -gneE49 gneE68 -gneE65"/>
    </vehicle>
    <vehicle id="V44.0" depart="0.00">
        <route edges="gneE67 gneE48 gneE49 gneE70 -gneE62 -gneE71"/>
    </vehicle>
    <vehicle id="V45.0" depart="0.00">
        <route edges="gneE70 gneE63 gneE64 -gneE69 -gneE49 -gneE48 -gneE67 -gneE66"/>
    </vehicle>
    <vehicle id="V46.0" depart="0.00">
        <route edges="-gneE70 gneE50 gneE71 gneE62"/>
    </vehicle>
    <vehicle id="V47.0" depart="0.00">
        <route edges="-gneE54 -gneE52 -gneE51 -gneE50 gneE69 -gneE64 -gneE63"/>
    </vehicle>
    <vehicle id="V48.0" depart="0.00">
        <route edges="-gneE47 gneE78"/>
    </vehicle>
    <vehicle id="V49.0" depart="0.00">
        <route edges="-gneE59 gneE57 -gneE50 gneE69"/>
    </vehicle>
    <vehicle id="V5.0" depart="0.00">
        <route edges="-gneE66 -gneE68 -gneE59 -gneE79"/>
    </vehicle>
    <vehicle id="V50.0" depart="0.00">
        <route edges="gneE52 gneE54 gneE57 -gneE50 -gneE49"/>
    </vehicle>
    <vehicle id="V51.0" depart="0.00">
        <route edges="-gneE67 -gneE66 -gneE65 -gneE69"/>
    </vehicle>
    <vehicle id="V52.0" depart="0.00">
        <route edges="gneE64 -gneE69 gneE70 -gneE62 -gneE61"/>
    </vehicle>
    <vehicle id="V53.0" depart="0.00">
        <route edges="-gneE48 -gneE67 -gneE66"/>
    </vehicle>
    <vehicle id="V54.0" depart="0.00">
        <route edges="-gneE69 -gneE49 gneE68 gneE66 gneE67"/>
    </vehicle>
    <vehicle id="V55.0" depart="0.00">
        <route edges="-gneE62 -gneE71 gneE51 gneE60 gneE61 gneE62 -gneE70"/>
    </vehicle>
    <vehicle id="V56.0" depart="0.00">
        <route edges="-gneE54 gneE53 gneE46 gneE83 gneE84 gneE85 -gneE78 -gneE46 -gneE53"/>
    </vehicle>
    <vehicle id="V57.0" depart="0.00">
        <route edges="gneE59 gneE49 gneE50 gneE71"/>
    </vehicle>
    <vehicle id="V58.0" depart="0.00">
        <route edges="-gneE59 -gneE79 -gneE78 gneE83 gneE84"/>
    </vehicle>
    <vehicle id="V59.0" depart="0.00">
        <route edges="-gneE49 -gneE59 gneE57 gneE51"/>
    </vehicle>
    <vehicle id="V6.0" depart="0.00">
        <route edges="-gneE52 -gneE51 -gneE57 -gneE79 -gneE78 -gneE46 -gneE53 gneE54"/>
    </vehicle>
    <vehicle id="V60.0" depart="0.00">
        <route edges="-gneE64 -gneE63 -gneE62 -gneE71 -gneE57 gneE59"/>
    </vehicle>
    <vehicle id="V61.0" depart="0.00">
        <route edges="-gneE69 -gneE49 gneE68 gneE66 gneE67 gneE48"/>
    </vehicle>
    <vehicle id="V62.0" depart="0.00">
        <route edges="gneE84 gneE85 gneE79 gneE59 gneE68"/>
    </vehicle>
    <vehicle id="V63.0" depart="0.00">
        <route edges="gneE83 gneE84 gneE85 gneE79 -gneE54 -gneE52 -gneE51 -gneE57"/>
    </vehicle>
    <vehicle id="V64.0" depart="0.00">
        <route edges="gneE78 gneE79 gneE59 gneE49 gneE50"/>
    </vehicle>
    <vehicle id="V65.0" depart="0.00">
        <route edges="-gneE51 gneE71 -gneE61 -gneE60"/>
    </vehicle>
    <vehicle id="V66.0" depart="0.00">
        <route edges="-gneE66 -gneE68 -gneE48 -gneE47 gneE83 gneE84"/>
    </vehicle>
    <vehicle id="V67.0" depart="0.00">
        <route edges="gneE63 gneE64 -gneE69 -gneE49 gneE68 -gneE65"/>
    </vehicle>
    <vehicle id="V68.0" depart="0.00">
        <route edges="-gneE78 gneE47 gneE48 gneE49 gneE50"/>
    </vehicle>
    <vehicle id="V69.0" depart="0.00">
        <route edges="-gneE46 -gneE53 gneE54 -gneE79"/>
    </vehicle>
    <vehicle id="V7.0" depart="0.00">
        <route edges="-gneE71 -gneE57 gneE59 gneE68 gneE66"/>
    </vehicle>
    <vehicle id="V70.0" depart="0.00">
        <route edges="-gneE68 -gneE59 -gneE79 -gneE78 gneE47 gneE48"/>
    </vehicle>
    <vehicle id="V71.0" depart="0.00">
        <route edges="gneE61 gneE62 -gneE70 gneE69 -gneE64 -gneE63"/>
    </vehicle>
    <vehicle id="V72.0" depart="0.00">
        <route edges="gneE62 -gneE70 -gneE49 -gneE48 -gneE67"/>
    </vehicle>
    <vehicle id="V73.0" depart="0.00">
        <route edges="-gneE60 -gneE51 -gneE50 gneE70"/>
    </vehicle>
    <vehicle id="V74.0" depart="0.00">
        <route edges="gneE48 -gneE59"/>
    </vehicle>
    <vehicle id="V75.0" depart="0.00">
        <route edges="-gneE46 -gneE53 gneE54 gneE59 gneE49 gneE69 gneE65 -gneE68"/>
    </vehicle>
    <vehicle id="V76.0" depart="0.00">
        <route edges="gneE69 gneE65 gneE66 gneE67 -gneE47 gneE83"/>
    </vehicle>
    <vehicle id="V77.0" depart="0.00">
        <route edges="-gneE50 gneE70 gneE63 gneE64"/>
    </vehicle>
    <vehicle id="V78.0" depart="0.00">
        <route edges="-gneE59 gneE57 gneE71 -gneE61 -gneE60"/>
    </vehicle>
    <vehicle id="V79.0" depart="0.00">
        <route edges="-gneE63 -gneE62 -gneE71 gneE51 gneE60 gneE61"/>
    </vehicle>
    <vehicle id="V8.0" depart="0.00">
        <route edges="gneE68 -gneE65 -gneE69 gneE50 gneE71"/>
    </vehicle>
    <vehicle id="V80.0" depart="0.00">
        <route edges="-gneE66 -gneE65 -gneE69 gneE50 -gneE57"/>
    </vehicle>
    <vehicle id="V81.0" depart="0.00">
        <route edges="gneE84 gneE85 gneE79 gneE57 gneE71 gneE62"/>
    </vehicle>
    <vehicle id="V82.0" depart="0.00">
        <route edges="gneE71 gneE62 -gneE70 -gneE49 -gneE48 -gneE47 -gneE46"/>
    </vehicle>
    <vehicle id="V83.0" depart="0.00">
        <route edges="-gneE54 -gneE52 -gneE51 -gneE50 -gneE49 -gneE48"/>
    </vehicle>
    <vehicle id="V84.0" depart="0.00">
        <route edges="-gneE47 -gneE46 -gneE53 -gneE52 -gneE51 -gneE57"/>
    </vehicle>
    <vehicle id="V85.0" depart="0.00">
        <route edges="gneE83 gneE84 gneE85 gneE79 gneE57"/>
    </vehicle>
    <vehicle id="V86.0" depart="0.00">
        <route edges="gneE64 -gneE69 -gneE49"/>
    </vehicle>
    <vehicle id="V87.0" depart="0.00">
        <route edges="-gneE60 -gneE51 gneE71 gneE62 gneE63 gneE64 -gneE69"/>
    </vehicle>
    <vehicle id="V88.0" depart="0.00">
        <route edges="gneE78 gneE79 -gneE54 -gneE52 gneE60"/>
    </vehicle>
    <vehicle id="V89.0" depart="0.00">
        <route edges="gneE69 gneE65 -gneE68 -gneE59 -gneE54 -gneE52"/>
    </vehicle>
    <vehicle id="V9.0" depart="0.00">
        <route edges="gneE78 gneE79 -gneE54 -gneE52"/>
    </vehicle>
    <vehicle id="V90.0" depart="0.00">
        <route edges="gneE68 gneE66 gneE67 gneE48 -gneE59 -gneE79"/>
    </vehicle>
    <vehicle id="V91.0" depart="0.00">
        <route edges="gneE47 gneE48 -gneE59 -gneE79 -gneE78 -gneE46 -gneE53"/>
    </vehicle>
    <vehicle id="V92.0" depart="0.00">
        <route edges="gneE50 gneE71"/>
    </vehicle>
    <vehicle id="V93.0" depart="0.00">
        <route edges="gneE65 gneE66 gneE67 -gneE47"/>
    </vehicle>
    <vehicle id="V94.0" depart="0.00">
        <route edges="-gneE63 -gneE70 -gneE49 -gneE59 -gneE54 -gneE52"/>
    </vehicle>
    <vehicle id="V95.0" depart="0.00">
        <route edges="gneE59 -gneE48 -gneE47 -gneE46 -gneE53 gneE54"/>
    </vehicle>
    <vehicle id="V96.0" depart="0.00">
        <route edges="-gneE69 -gneE49 -gneE48 -gneE47 -gneE46"/>
    </vehicle>
    <vehicle id="V97.0" depart="0.00">
        <route edges="gneE67 -gneE47 gneE78 gneE79 gneE57 gneE51"/>
    </vehicle>
    <vehicle id="V98.0" depart="0.00">
        <route edges="-gneE57 -gneE54 -gneE52 -gneE51 -gneE50 -gneE49"/>
    </vehicle>
    <vehicle id="V99.0" depart="0.00">
        <route edges="-gneE63 -gneE70 -gneE49 -gneE48 -gneE47 gneE78"/>
    </vehicle>


  <vType id="electricvehicle" accel="0.8" decel="4.5" sigma="0.5" minGap="2.5" maxSpeed="40" emissionClass="Energy/unknown" guiShape="evehicle">
                     <param key="has.battery.device" value="true"/>
                     <param key="maximumBatteryCapacity" value="2000"/>
                     <param key="maximumPower" value="1000"/>
                     <param key="vehicleMass" value="1000"/>
                     <param key="frontSurfaceArea" value="5"/>
                     <param key="airDragCoefficient" value="0.6"/>
                     <param key="internalMomentOfInertia" value="0.01"/>
                     <param key="radialDragCoefficient" value="0.5"/>
                     <param key="rollDragCoefficient" value="0.01"/>
                     <param key="constantPowerIntake" value="100"/>
                     <param key="propulsionEfficiency" value="0.9"/>
                     <param key="recuperationEfficiency" value="0.9"/>
                     <param key="stoppingTreshold" value="0.1"/>
             </vType>
</routes>
