<?xml version="1.0" encoding="UTF-8"?>

<!-- generated on 03/31/21 10:31:26 by Eclipse SUMO netedit Version v1_8_0+1742-ceeb7fe3f3
<configuration xmlns:xsi="http://www.w3.org/2001/XMLSchema-instance" xsi:noNamespaceSchemaLocation="http://sumo.dlr.de/xsd/netconvertConfiguration.xsd">

    <input>
        <sumo-net-file value="C:\Users\Cole\Documents\Github\EVDetourRouting\EVGrid\data\EVGrid.net.xml"/>
    </input>

    <output>
        <output-file value="C:\Users\Cole\Documents\Github\EVDetourRouting\EVGrid\data\EVGrid.net.xml"/>
    </output>

    <processing>
        <geometry.min-radius.fix.railways value="false"/>
        <geometry.max-grade.fix value="false"/>
        <offset.disable-normalization value="true"/>
        <lefthand value="true"/>
    </processing>

    <junctions>
        <no-turnarounds value="true"/>
        <junctions.corner-detail value="5"/>
        <junctions.limit-turn-speed value="5.5"/>
        <rectangular-lane-cut value="false"/>
    </junctions>

    <pedestrian>
        <walkingareas value="false"/>
    </pedestrian>

    <netedit>
        <additional-files value="C:\Users\Cole\Documents\Github\EVDetourRouting\EVGrid\data\EVGrid_additionals.add.xml"/>
    </netedit>

    <report>
        <aggregate-warnings value="5"/>
    </report>

</configuration>
-->

<additional xmlns:xsi="http://www.w3.org/2001/XMLSchema-instance" xsi:noNamespaceSchemaLocation="http://sumo.dlr.de/xsd/additional_file.xsd">
    <chargingStation id="chargingStationMID" lane="gneE115_0" startPos="0.00" endPos="17.41" power="18000.00" efficiency="0.95"/>
    <chargingStation id="chargingStation_gneE123_0_2" lane="gneE123_0" startPos="0.00" endPos="17.84" power="20000.00" efficiency="0.95"/>
    <chargingStation id="chargingStation_gneE132_0_3" lane="gneE132_0" startPos="0.00" endPos="13.14" power="21000.00" efficiency="0.70"/>
    <chargingStation id="chargingStation_gneE96_0_0" lane="gneE96_0" startPos="0.00" endPos="17.25" power="20000.00" efficiency="0.80"/>

    <vTypeProbe id="probe1" type="electricvehicle" freq="10" file="EV_output.xml"/>
</additional>
