<?xml version="1.0" encoding="UTF-8"?>

<!-- generated on 04/05/21 18:48:23 by Eclipse SUMO netedit Version v1_8_0+1742-ceeb7fe3f3
<configuration xmlns:xsi="http://www.w3.org/2001/XMLSchema-instance" xsi:noNamespaceSchemaLocation="http://sumo.dlr.de/xsd/netconvertConfiguration.xsd">

    <input>
        <sumo-net-file value="C:\Users\Cole\Documents\Github\EVDetourRouting\EVGrid\data\EVGrid.net.xml"/>
    </input>

    <output>
        <output-file value="C:\Users\Cole\Documents\Github\EVDetourRouting\EVGrid\data\EVGrid.net.xml"/>
    </output>

    <processing>
        <geometry.min-radius.fix.railways value="false"/>
        <geometry.max-grade.fix value="false"/>
        <offset.disable-normalization value="true"/>
        <lefthand value="true"/>
    </processing>

    <junctions>
        <no-turnarounds value="true"/>
        <junctions.corner-detail value="5"/>
        <junctions.limit-turn-speed value="5.5"/>
        <rectangular-lane-cut value="false"/>
    </junctions>

    <pedestrian>
        <walkingareas value="false"/>
    </pedestrian>

    <report>
        <aggregate-warnings value="5"/>
    </report>

</configuration>
-->

<net version="1.9" junctionCornerDetail="5" lefthand="true" limitTurnSpeed="5.50" xmlns:xsi="http://www.w3.org/2001/XMLSchema-instance" xsi:noNamespaceSchemaLocation="http://sumo.dlr.de/xsd/net_file.xsd">

    <location netOffset="0.00,0.00" convBoundary="0.00,-500.00,750.14,250.00" origBoundary="-10000000000.00,-10000000000.00,10000000000.00,10000000000.00" projParameter="!"/>

    <edge id=":gneJ22_0" function="internal">
        <lane id=":gneJ22_0_0" index="0" speed="6.08" length="7.74" shape="-1.60,246.80 -1.30,248.90 -0.40,250.40 1.10,251.30 3.20,251.60"/>
    </edge>
    <edge id=":gneJ22_1" function="internal">
        <lane id=":gneJ22_1_0" index="0" speed="3.90" length="2.58" shape="3.20,248.40 2.50,248.30 2.00,248.00 1.70,247.50 1.60,246.80"/>
    </edge>
    <edge id=":gneJ23_0" function="internal">
        <lane id=":gneJ23_0_0" index="0" allow="evehicle" speed="5.46" length="9.88" shape="262.20,248.40 259.03,248.06 257.62,247.03 257.96,245.31 260.07,242.91"/>
    </edge>
    <edge id=":gneJ23_1" function="internal">
        <lane id=":gneJ23_1_0" index="0" speed="7.78" length="13.33" shape="262.20,248.40 257.56,248.05 254.25,247.00 252.25,245.24 251.58,242.79"/>
    </edge>
    <edge id=":gneJ23_2" function="internal">
        <lane id=":gneJ23_2_0" index="0" speed="13.89" length="19.41" shape="262.20,248.40 242.79,248.40"/>
    </edge>
    <edge id=":gneJ23_3" function="internal">
        <lane id=":gneJ23_3_0" index="0" speed="13.89" length="19.41" shape="242.79,251.60 262.20,251.60"/>
    </edge>
    <edge id=":gneJ23_4" function="internal">
        <lane id=":gneJ23_4_0" index="0" allow="evehicle" speed="13.89" length="6.12" shape="242.79,251.60 247.08,250.72 248.67,250.00"/>
    </edge>
    <edge id=":gneJ23_5" function="internal">
        <lane id=":gneJ23_5_0" index="0" speed="8.00" length="5.93" shape="242.79,251.60 246.65,251.05 248.39,250.00"/>
    </edge>
    <edge id=":gneJ23_9" function="internal">
        <lane id=":gneJ23_9_0" index="0" allow="evehicle" speed="13.89" length="13.48" shape="248.67,250.00 251.92,248.53 256.52,245.70 260.07,242.91"/>
    </edge>
    <edge id=":gneJ23_10" function="internal">
        <lane id=":gneJ23_10_0" index="0" speed="8.00" length="8.27" shape="248.39,250.00 249.40,249.40 251.04,246.64 251.58,242.79"/>
    </edge>
    <edge id=":gneJ23_6" function="internal">
        <lane id=":gneJ23_6_0" index="0" speed="6.50" length="9.03" shape="248.38,242.80 248.04,245.25 246.99,247.00 245.24,248.05 242.79,248.40"/>
    </edge>
    <edge id=":gneJ23_7" function="internal">
        <lane id=":gneJ23_7_0" index="0" speed="9.05" length="18.42" shape="248.38,242.80 249.25,246.65 251.85,249.40 256.17,251.05 262.20,251.60"/>
    </edge>
    <edge id=":gneJ23_8" function="internal">
        <lane id=":gneJ23_8_0" index="0" allow="evehicle" speed="7.09" length="17.10" shape="248.38,242.80 249.12,246.87 251.32,248.25 254.96,246.93 260.07,242.91"/>
    </edge>
    <edge id=":gneJ24_0" function="internal">
        <lane id=":gneJ24_0_0" index="0" speed="6.51" length="9.03" shape="498.40,242.80 498.05,245.25 497.00,247.00 495.25,248.05 492.80,248.40"/>
    </edge>
    <edge id=":gneJ24_1" function="internal">
        <lane id=":gneJ24_1_0" index="0" speed="8.00" length="14.19" shape="498.40,242.80 498.95,246.65 500.60,249.40 503.35,251.05 507.20,251.60"/>
    </edge>
    <edge id=":gneJ24_2" function="internal">
        <lane id=":gneJ24_2_0" index="0" speed="6.51" length="9.03" shape="507.20,248.40 504.75,248.05 503.00,247.00 501.95,245.25 501.60,242.80"/>
    </edge>
    <edge id=":gneJ24_3" function="internal">
        <lane id=":gneJ24_3_0" index="0" speed="13.89" length="14.40" shape="507.20,248.40 492.80,248.40"/>
    </edge>
    <edge id=":gneJ24_4" function="internal">
        <lane id=":gneJ24_4_0" index="0" speed="13.89" length="14.40" shape="492.80,251.60 507.20,251.60"/>
    </edge>
    <edge id=":gneJ24_5" function="internal">
        <lane id=":gneJ24_5_0" index="0" speed="8.00" length="5.93" shape="492.80,251.60 496.65,251.05 498.40,250.00"/>
    </edge>
    <edge id=":gneJ24_6" function="internal">
        <lane id=":gneJ24_6_0" index="0" speed="8.00" length="8.26" shape="498.40,250.00 499.40,249.40 501.05,246.65 501.60,242.80"/>
    </edge>
    <edge id=":gneJ25_0" function="internal">
        <lane id=":gneJ25_0_0" index="0" speed="6.51" length="9.03" shape="498.40,-7.20 498.05,-4.75 497.00,-3.00 495.25,-1.95 492.80,-1.60"/>
    </edge>
    <edge id=":gneJ25_1" function="internal">
        <lane id=":gneJ25_1_0" index="0" speed="13.89" length="14.40" shape="498.40,-7.20 498.40,7.20"/>
    </edge>
    <edge id=":gneJ25_2" function="internal">
        <lane id=":gneJ25_2_0" index="0" speed="8.00" length="5.93" shape="498.40,-7.20 498.95,-3.35 500.00,-1.60"/>
    </edge>
    <edge id=":gneJ25_12" function="internal">
        <lane id=":gneJ25_12_0" index="0" speed="8.00" length="8.26" shape="500.00,-1.60 500.60,-0.60 503.35,1.05 507.20,1.60"/>
    </edge>
    <edge id=":gneJ25_3" function="internal">
        <lane id=":gneJ25_3_0" index="0" speed="6.51" length="9.03" shape="507.20,-1.60 504.75,-1.95 503.00,-3.00 501.95,-4.75 501.60,-7.20"/>
    </edge>
    <edge id=":gneJ25_4" function="internal">
        <lane id=":gneJ25_4_0" index="0" speed="13.89" length="14.40" shape="507.20,-1.60 492.80,-1.60"/>
    </edge>
    <edge id=":gneJ25_5" function="internal">
        <lane id=":gneJ25_5_0" index="0" speed="8.00" length="14.19" shape="507.20,-1.60 503.35,-1.05 500.60,0.60 498.95,3.35 498.40,7.20"/>
    </edge>
    <edge id=":gneJ25_6" function="internal">
        <lane id=":gneJ25_6_0" index="0" speed="6.51" length="9.03" shape="501.60,7.20 501.95,4.75 503.00,3.00 504.75,1.95 507.20,1.60"/>
    </edge>
    <edge id=":gneJ25_7" function="internal">
        <lane id=":gneJ25_7_0" index="0" speed="13.89" length="14.40" shape="501.60,7.20 501.60,-7.20"/>
    </edge>
    <edge id=":gneJ25_8" function="internal">
        <lane id=":gneJ25_8_0" index="0" speed="8.00" length="5.93" shape="501.60,7.20 501.05,3.35 500.00,1.60"/>
    </edge>
    <edge id=":gneJ25_13" function="internal">
        <lane id=":gneJ25_13_0" index="0" speed="8.00" length="8.26" shape="500.00,1.60 499.40,0.60 496.65,-1.05 492.80,-1.60"/>
    </edge>
    <edge id=":gneJ25_9" function="internal">
        <lane id=":gneJ25_9_0" index="0" speed="6.51" length="9.03" shape="492.80,1.60 495.25,1.95 497.00,3.00 498.05,4.75 498.40,7.20"/>
    </edge>
    <edge id=":gneJ25_10" function="internal">
        <lane id=":gneJ25_10_0" index="0" speed="13.89" length="14.40" shape="492.80,1.60 507.20,1.60"/>
    </edge>
    <edge id=":gneJ25_11" function="internal">
        <lane id=":gneJ25_11_0" index="0" speed="8.00" length="14.19" shape="492.80,1.60 496.65,1.05 499.40,-0.60 501.05,-3.35 501.60,-7.20"/>
    </edge>
    <edge id=":gneJ26_0" function="internal">
        <lane id=":gneJ26_0_0" index="0" speed="6.51" length="9.03" shape="498.40,-257.20 498.05,-254.75 497.00,-253.00 495.25,-251.95 492.80,-251.60"/>
    </edge>
    <edge id=":gneJ26_1" function="internal">
        <lane id=":gneJ26_1_0" index="0" speed="13.89" length="14.40" shape="498.40,-257.20 498.40,-242.80"/>
    </edge>
    <edge id=":gneJ26_2" function="internal">
        <lane id=":gneJ26_2_0" index="0" speed="8.00" length="5.93" shape="498.40,-257.20 498.95,-253.35 500.00,-251.60"/>
    </edge>
    <edge id=":gneJ26_12" function="internal">
        <lane id=":gneJ26_12_0" index="0" speed="8.00" length="8.26" shape="500.00,-251.60 500.60,-250.60 503.35,-248.95 507.20,-248.40"/>
    </edge>
    <edge id=":gneJ26_3" function="internal">
        <lane id=":gneJ26_3_0" index="0" speed="6.51" length="9.03" shape="507.20,-251.60 504.75,-251.95 503.00,-253.00 501.95,-254.75 501.60,-257.20"/>
    </edge>
    <edge id=":gneJ26_4" function="internal">
        <lane id=":gneJ26_4_0" index="0" speed="13.89" length="14.40" shape="507.20,-251.60 492.80,-251.60"/>
    </edge>
    <edge id=":gneJ26_5" function="internal">
        <lane id=":gneJ26_5_0" index="0" speed="8.00" length="14.19" shape="507.20,-251.60 503.35,-251.05 500.60,-249.40 498.95,-246.65 498.40,-242.80"/>
    </edge>
    <edge id=":gneJ26_6" function="internal">
        <lane id=":gneJ26_6_0" index="0" speed="6.51" length="9.03" shape="501.60,-242.80 501.95,-245.25 503.00,-247.00 504.75,-248.05 507.20,-248.40"/>
    </edge>
    <edge id=":gneJ26_7" function="internal">
        <lane id=":gneJ26_7_0" index="0" speed="13.89" length="14.40" shape="501.60,-242.80 501.60,-257.20"/>
    </edge>
    <edge id=":gneJ26_8" function="internal">
        <lane id=":gneJ26_8_0" index="0" speed="8.00" length="5.93" shape="501.60,-242.80 501.05,-246.65 500.00,-248.40"/>
    </edge>
    <edge id=":gneJ26_13" function="internal">
        <lane id=":gneJ26_13_0" index="0" speed="8.00" length="8.26" shape="500.00,-248.40 499.40,-249.40 496.65,-251.05 492.80,-251.60"/>
    </edge>
    <edge id=":gneJ26_9" function="internal">
        <lane id=":gneJ26_9_0" index="0" speed="6.51" length="9.03" shape="492.80,-248.40 495.25,-248.05 497.00,-247.00 498.05,-245.25 498.40,-242.80"/>
    </edge>
    <edge id=":gneJ26_10" function="internal">
        <lane id=":gneJ26_10_0" index="0" speed="13.89" length="14.40" shape="492.80,-248.40 507.20,-248.40"/>
    </edge>
    <edge id=":gneJ26_11" function="internal">
        <lane id=":gneJ26_11_0" index="0" speed="8.00" length="14.19" shape="492.80,-248.40 496.65,-248.95 499.40,-250.60 501.05,-253.35 501.60,-257.20"/>
    </edge>
    <edge id=":gneJ27_0" function="internal">
        <lane id=":gneJ27_0_0" index="0" speed="6.51" length="9.03" shape="248.40,-257.20 248.05,-254.75 247.00,-253.00 245.25,-251.95 242.80,-251.60"/>
    </edge>
    <edge id=":gneJ27_1" function="internal">
        <lane id=":gneJ27_1_0" index="0" speed="13.89" length="14.40" shape="248.40,-257.20 248.40,-242.80"/>
    </edge>
    <edge id=":gneJ27_2" function="internal">
        <lane id=":gneJ27_2_0" index="0" speed="8.00" length="5.93" shape="248.40,-257.20 248.95,-253.35 250.00,-251.60"/>
    </edge>
    <edge id=":gneJ27_12" function="internal">
        <lane id=":gneJ27_12_0" index="0" speed="8.00" length="8.26" shape="250.00,-251.60 250.60,-250.60 253.35,-248.95 257.20,-248.40"/>
    </edge>
    <edge id=":gneJ27_3" function="internal">
        <lane id=":gneJ27_3_0" index="0" speed="6.51" length="9.03" shape="257.20,-251.60 254.75,-251.95 253.00,-253.00 251.95,-254.75 251.60,-257.20"/>
    </edge>
    <edge id=":gneJ27_4" function="internal">
        <lane id=":gneJ27_4_0" index="0" speed="13.89" length="14.40" shape="257.20,-251.60 242.80,-251.60"/>
    </edge>
    <edge id=":gneJ27_5" function="internal">
        <lane id=":gneJ27_5_0" index="0" speed="8.00" length="14.19" shape="257.20,-251.60 253.35,-251.05 250.60,-249.40 248.95,-246.65 248.40,-242.80"/>
    </edge>
    <edge id=":gneJ27_6" function="internal">
        <lane id=":gneJ27_6_0" index="0" speed="6.51" length="9.03" shape="251.60,-242.80 251.95,-245.25 253.00,-247.00 254.75,-248.05 257.20,-248.40"/>
    </edge>
    <edge id=":gneJ27_7" function="internal">
        <lane id=":gneJ27_7_0" index="0" speed="13.89" length="14.40" shape="251.60,-242.80 251.60,-257.20"/>
    </edge>
    <edge id=":gneJ27_8" function="internal">
        <lane id=":gneJ27_8_0" index="0" speed="8.00" length="5.93" shape="251.60,-242.80 251.05,-246.65 250.00,-248.40"/>
    </edge>
    <edge id=":gneJ27_13" function="internal">
        <lane id=":gneJ27_13_0" index="0" speed="8.00" length="8.26" shape="250.00,-248.40 249.40,-249.40 246.65,-251.05 242.80,-251.60"/>
    </edge>
    <edge id=":gneJ27_9" function="internal">
        <lane id=":gneJ27_9_0" index="0" speed="6.51" length="9.03" shape="242.80,-248.40 245.25,-248.05 247.00,-247.00 248.05,-245.25 248.40,-242.80"/>
    </edge>
    <edge id=":gneJ27_10" function="internal">
        <lane id=":gneJ27_10_0" index="0" speed="13.89" length="14.40" shape="242.80,-248.40 257.20,-248.40"/>
    </edge>
    <edge id=":gneJ27_11" function="internal">
        <lane id=":gneJ27_11_0" index="0" speed="8.00" length="14.19" shape="242.80,-248.40 246.65,-248.95 249.40,-250.60 251.05,-253.35 251.60,-257.20"/>
    </edge>
    <edge id=":gneJ28_0" function="internal">
        <lane id=":gneJ28_0_0" index="0" speed="13.89" length="14.40" shape="-1.60,-257.20 -1.60,-242.80"/>
    </edge>
    <edge id=":gneJ28_1" function="internal">
        <lane id=":gneJ28_1_0" index="0" speed="8.00" length="5.93" shape="-1.60,-257.20 -1.05,-253.35 0.00,-251.60"/>
    </edge>
    <edge id=":gneJ28_6" function="internal">
        <lane id=":gneJ28_6_0" index="0" speed="8.00" length="8.26" shape="0.00,-251.60 0.60,-250.60 3.35,-248.95 7.20,-248.40"/>
    </edge>
    <edge id=":gneJ28_2" function="internal">
        <lane id=":gneJ28_2_0" index="0" speed="6.51" length="9.03" shape="7.20,-251.60 4.75,-251.95 3.00,-253.00 1.95,-254.75 1.60,-257.20"/>
    </edge>
    <edge id=":gneJ28_3" function="internal">
        <lane id=":gneJ28_3_0" index="0" speed="8.00" length="14.19" shape="7.20,-251.60 3.35,-251.05 0.60,-249.40 -1.05,-246.65 -1.60,-242.80"/>
    </edge>
    <edge id=":gneJ28_4" function="internal">
        <lane id=":gneJ28_4_0" index="0" speed="6.51" length="9.03" shape="1.60,-242.80 1.95,-245.25 3.00,-247.00 4.75,-248.05 7.20,-248.40"/>
    </edge>
    <edge id=":gneJ28_5" function="internal">
        <lane id=":gneJ28_5_0" index="0" speed="13.89" length="14.40" shape="1.60,-242.80 1.60,-257.20"/>
    </edge>
    <edge id=":gneJ29_0" function="internal">
        <lane id=":gneJ29_0_0" index="0" speed="13.89" length="14.40" shape="-1.60,-7.21 -1.60,7.19"/>
    </edge>
    <edge id=":gneJ29_1" function="internal">
        <lane id=":gneJ29_1_0" index="0" speed="7.79" length="13.45" shape="-1.60,-7.21 -0.81,-4.08 1.25,-1.26 4.09,0.79 7.21,1.58"/>
    </edge>
    <edge id=":gneJ29_2" function="internal">
        <lane id=":gneJ29_2_0" index="0" speed="6.50" length="9.03" shape="7.20,-1.62 4.75,-1.97 3.00,-3.01 1.95,-4.76 1.60,-7.21"/>
    </edge>
    <edge id=":gneJ29_3" function="internal">
        <lane id=":gneJ29_3_0" index="0" speed="7.81" length="13.45" shape="7.20,-1.62 4.08,-0.82 1.25,1.23 -0.81,4.06 -1.60,7.19"/>
    </edge>
    <edge id=":gneJ29_4" function="internal">
        <lane id=":gneJ29_4_0" index="0" speed="6.52" length="9.05" shape="1.60,7.19 1.95,4.74 3.00,2.99 4.76,1.93 7.21,1.58"/>
    </edge>
    <edge id=":gneJ29_5" function="internal">
        <lane id=":gneJ29_5_0" index="0" speed="13.89" length="14.40" shape="1.60,7.19 1.60,-7.21"/>
    </edge>
    <edge id=":gneJ30_0" function="internal">
        <lane id=":gneJ30_0_0" index="0" speed="7.52" length="12.57" shape="248.40,-7.97 247.82,-5.20 246.10,-3.25 243.22,-2.11 239.20,-1.78"/>
    </edge>
    <edge id=":gneJ30_1" function="internal">
        <lane id=":gneJ30_1_0" index="0" speed="13.89" length="15.17" shape="248.40,-7.97 248.40,7.20"/>
    </edge>
    <edge id=":gneJ30_2" function="internal">
        <lane id=":gneJ30_2_0" index="0" speed="8.16" length="6.39" shape="248.40,-7.97 248.95,-3.78 250.00,-1.88"/>
    </edge>
    <edge id=":gneJ30_16" function="internal">
        <lane id=":gneJ30_16_0" index="0" speed="8.16" length="8.42" shape="250.00,-1.88 250.60,-0.79 253.35,1.00 257.20,1.60"/>
    </edge>
    <edge id=":gneJ30_3" function="internal">
        <lane id=":gneJ30_3_0" index="0" speed="6.71" length="9.66" shape="257.20,-1.60 254.75,-2.00 253.00,-3.19 251.95,-5.18 251.60,-7.97"/>
    </edge>
    <edge id=":gneJ30_4" function="internal">
        <lane id=":gneJ30_4_0" index="0" speed="13.89" length="18.00" shape="257.20,-1.60 239.20,-1.78"/>
    </edge>
    <edge id=":gneJ30_5" function="internal">
        <lane id=":gneJ30_5_0" index="0" speed="8.00" length="14.19" shape="257.20,-1.60 253.35,-1.05 250.60,0.60 248.95,3.35 248.40,7.20"/>
    </edge>
    <edge id=":gneJ30_6" function="internal">
        <lane id=":gneJ30_6_0" index="0" speed="6.51" length="9.03" shape="251.60,7.20 251.95,4.75 253.00,3.00 254.75,1.95 257.20,1.60"/>
    </edge>
    <edge id=":gneJ30_7" function="internal">
        <lane id=":gneJ30_7_0" index="0" speed="13.89" length="15.17" shape="251.60,7.20 251.60,-7.97"/>
    </edge>
    <edge id=":gneJ30_8" function="internal">
        <lane id=":gneJ30_8_0" index="0" speed="8.60" length="3.98" shape="251.60,7.20 250.38,3.96 250.00,3.60"/>
    </edge>
    <edge id=":gneJ30_17" function="internal">
        <lane id=":gneJ30_17_0" index="0" speed="8.60" length="12.36" shape="250.00,3.60 247.31,1.10 243.29,-0.96 239.20,-1.78"/>
    </edge>
    <edge id=":gneJ30_9" function="internal">
        <lane id=":gneJ30_9_0" index="0" speed="7.50" length="12.19" shape="239.14,1.42 243.19,1.84 246.08,2.94 247.82,4.73 248.40,7.20"/>
    </edge>
    <edge id=":gneJ30_10" function="internal">
        <lane id=":gneJ30_10_0" index="0" speed="13.89" length="18.06" shape="239.14,1.42 257.20,1.60"/>
    </edge>
    <edge id=":gneJ30_11" function="internal">
        <lane id=":gneJ30_11_0" index="0" speed="8.84" length="17.76" shape="239.14,1.42 244.59,0.91 248.49,-0.82 250.82,-3.78 251.60,-7.97"/>
    </edge>
    <edge id=":gneJ30_12" function="internal">
        <lane id=":gneJ30_12_0" index="0" allow="evehicle" speed="5.52" length="9.50" shape="241.96,-7.43 243.53,-4.91 243.59,-3.13 242.15,-2.08 239.20,-1.78"/>
    </edge>
    <edge id=":gneJ30_13" function="internal">
        <lane id=":gneJ30_13_0" index="0" allow="evehicle" speed="13.89" length="16.24" shape="241.96,-7.43 244.29,-4.20 246.35,-0.53 247.83,3.35 248.40,7.20"/>
    </edge>
    <edge id=":gneJ30_14" function="internal">
        <lane id=":gneJ30_14_0" index="0" allow="evehicle" speed="12.81" length="18.30" shape="241.96,-7.43 245.64,-3.48 249.41,-0.66 253.26,1.04 257.20,1.60"/>
    </edge>
    <edge id=":gneJ30_15" function="internal">
        <lane id=":gneJ30_15_0" index="0" allow="evehicle" speed="6.79" length="16.67" shape="241.96,-7.43 246.18,-2.98 249.19,-1.58 251.00,-3.25 251.60,-7.97"/>
    </edge>
    <edge id=":gneJ31_0" function="internal">
        <lane id=":gneJ31_0_0" index="0" speed="6.08" length="7.74" shape="3.20,-501.60 1.10,-501.30 -0.40,-500.40 -1.30,-498.90 -1.60,-496.80"/>
    </edge>
    <edge id=":gneJ31_1" function="internal">
        <lane id=":gneJ31_1_0" index="0" speed="3.90" length="2.58" shape="1.60,-496.80 1.70,-497.50 2.00,-498.00 2.50,-498.30 3.20,-498.40"/>
    </edge>
    <edge id=":gneJ32_0" function="internal">
        <lane id=":gneJ32_0_0" index="0" speed="13.89" length="14.40" shape="257.20,-501.59 242.80,-501.60"/>
    </edge>
    <edge id=":gneJ32_1" function="internal">
        <lane id=":gneJ32_1_0" index="0" speed="8.00" length="5.93" shape="257.20,-501.59 253.35,-501.05 251.60,-500.00"/>
    </edge>
    <edge id=":gneJ32_6" function="internal">
        <lane id=":gneJ32_6_0" index="0" speed="8.00" length="8.26" shape="251.60,-500.00 250.60,-499.40 248.95,-496.65 248.40,-492.80"/>
    </edge>
    <edge id=":gneJ32_2" function="internal">
        <lane id=":gneJ32_2_0" index="0" speed="6.51" length="9.03" shape="251.60,-492.80 251.95,-495.25 253.00,-497.00 254.75,-498.05 257.20,-498.39"/>
    </edge>
    <edge id=":gneJ32_3" function="internal">
        <lane id=":gneJ32_3_0" index="0" speed="8.00" length="14.19" shape="251.60,-492.80 251.05,-496.65 249.40,-499.40 246.65,-501.05 242.80,-501.60"/>
    </edge>
    <edge id=":gneJ32_4" function="internal">
        <lane id=":gneJ32_4_0" index="0" speed="6.51" length="9.03" shape="242.80,-498.40 245.25,-498.05 247.00,-497.00 248.05,-495.25 248.40,-492.80"/>
    </edge>
    <edge id=":gneJ32_5" function="internal">
        <lane id=":gneJ32_5_0" index="0" speed="13.89" length="14.40" shape="242.80,-498.40 257.20,-498.39"/>
    </edge>
    <edge id=":gneJ33_0" function="internal">
        <lane id=":gneJ33_0_0" index="0" speed="13.89" length="13.82" shape="507.20,-501.60 493.38,-501.57"/>
    </edge>
    <edge id=":gneJ33_1" function="internal">
        <lane id=":gneJ33_1_0" index="0" speed="9.21" length="4.94" shape="507.20,-501.60 503.35,-500.69 502.65,-499.99"/>
    </edge>
    <edge id=":gneJ33_9" function="internal">
        <lane id=":gneJ33_9_0" index="0" speed="9.21" length="14.19" shape="502.65,-499.99 500.60,-497.94 498.95,-493.37 498.40,-486.96"/>
    </edge>
    <edge id=":gneJ33_2" function="internal">
        <lane id=":gneJ33_2_0" index="0" speed="7.97" length="14.06" shape="501.60,-486.96 501.95,-491.97 503.00,-495.54 504.75,-497.69 507.20,-498.40"/>
    </edge>
    <edge id=":gneJ33_3" function="internal">
        <lane id=":gneJ33_3_0" index="0" speed="9.10" length="18.71" shape="501.60,-486.96 501.09,-493.37 499.54,-497.94 496.97,-500.67 493.38,-501.57"/>
    </edge>
    <edge id=":gneJ33_4" function="internal">
        <lane id=":gneJ33_4_0" index="0" allow="evehicle" speed="5.46" length="10.14" shape="493.04,-488.86 495.38,-491.22 497.06,-491.70 498.06,-490.28 498.40,-486.96"/>
    </edge>
    <edge id=":gneJ33_5" function="internal">
        <lane id=":gneJ33_5_0" index="0" allow="evehicle" speed="12.58" length="17.57" shape="493.04,-488.86 496.82,-493.03 500.44,-496.01 503.90,-497.80 507.20,-498.40"/>
    </edge>
    <edge id=":gneJ33_6" function="internal">
        <lane id=":gneJ33_6_0" index="0" allow="evehicle" speed="7.25" length="17.47" shape="493.04,-488.86 496.93,-494.44 498.29,-498.42 497.10,-500.79 493.38,-501.57"/>
    </edge>
    <edge id=":gneJ33_7" function="internal">
        <lane id=":gneJ33_7_0" index="0" speed="7.84" length="13.65" shape="493.39,-498.37 495.58,-497.66 497.15,-495.53 498.09,-491.96 498.40,-486.96"/>
    </edge>
    <edge id=":gneJ33_8" function="internal">
        <lane id=":gneJ33_8_0" index="0" speed="13.89" length="13.81" shape="493.39,-498.37 507.20,-498.40"/>
    </edge>
    <edge id=":gneJ34_0" function="internal">
        <lane id=":gneJ34_0_0" index="0" speed="6.08" length="7.74" shape="751.60,-496.80 751.30,-498.90 750.40,-500.40 748.90,-501.30 746.80,-501.60"/>
    </edge>
    <edge id=":gneJ34_1" function="internal">
        <lane id=":gneJ34_1_0" index="0" speed="3.90" length="2.58" shape="746.80,-498.40 747.50,-498.30 748.00,-498.00 748.30,-497.50 748.40,-496.80"/>
    </edge>
    <edge id=":gneJ35_0" function="internal">
        <lane id=":gneJ35_0_0" index="0" speed="6.51" length="9.03" shape="748.40,-257.20 748.05,-254.75 747.00,-253.00 745.25,-251.95 742.80,-251.60"/>
    </edge>
    <edge id=":gneJ35_1" function="internal">
        <lane id=":gneJ35_1_0" index="0" speed="13.89" length="14.40" shape="748.40,-257.20 748.40,-242.80"/>
    </edge>
    <edge id=":gneJ35_2" function="internal">
        <lane id=":gneJ35_2_0" index="0" speed="13.89" length="14.40" shape="751.60,-242.80 751.60,-257.20"/>
    </edge>
    <edge id=":gneJ35_3" function="internal">
        <lane id=":gneJ35_3_0" index="0" speed="8.00" length="5.93" shape="751.60,-242.80 751.05,-246.65 750.00,-248.40"/>
    </edge>
    <edge id=":gneJ35_6" function="internal">
        <lane id=":gneJ35_6_0" index="0" speed="8.00" length="8.26" shape="750.00,-248.40 749.40,-249.40 746.65,-251.05 742.80,-251.60"/>
    </edge>
    <edge id=":gneJ35_4" function="internal">
        <lane id=":gneJ35_4_0" index="0" speed="6.51" length="9.03" shape="742.80,-248.40 745.25,-248.05 747.00,-247.00 748.05,-245.25 748.40,-242.80"/>
    </edge>
    <edge id=":gneJ35_5" function="internal">
        <lane id=":gneJ35_5_0" index="0" speed="8.00" length="14.19" shape="742.80,-248.40 746.65,-248.95 749.40,-250.60 751.05,-253.35 751.60,-257.20"/>
    </edge>
    <edge id=":gneJ36_0" function="internal">
        <lane id=":gneJ36_0_0" index="0" speed="6.51" length="9.03" shape="748.40,-7.20 748.05,-4.75 747.00,-3.00 745.25,-1.95 742.80,-1.60"/>
    </edge>
    <edge id=":gneJ36_1" function="internal">
        <lane id=":gneJ36_1_0" index="0" speed="13.89" length="19.14" shape="748.40,-7.20 748.44,11.94"/>
    </edge>
    <edge id=":gneJ36_2" function="internal">
        <lane id=":gneJ36_2_0" index="0" speed="13.89" length="19.13" shape="751.64,11.93 751.60,-7.20"/>
    </edge>
    <edge id=":gneJ36_3" function="internal">
        <lane id=":gneJ36_3_0" index="0" speed="9.00" length="8.81" shape="751.64,11.93 751.07,6.01 750.02,3.35"/>
    </edge>
    <edge id=":gneJ36_9" function="internal">
        <lane id=":gneJ36_9_0" index="0" speed="9.00" length="9.37" shape="750.02,3.35 749.41,1.78 746.65,-0.75 742.80,-1.60"/>
    </edge>
    <edge id=":gneJ36_4" function="internal">
        <lane id=":gneJ36_4_0" index="0" allow="evehicle" speed="5.47" length="9.80" shape="742.91,9.73 745.32,7.71 747.04,7.40 748.09,8.81 748.44,11.94"/>
    </edge>
    <edge id=":gneJ36_5" function="internal">
        <lane id=":gneJ36_5_0" index="0" allow="evehicle" speed="13.89" length="19.31" shape="742.91,9.73 745.72,6.26 748.55,1.78 750.73,-2.95 751.60,-7.20"/>
    </edge>
    <edge id=":gneJ36_6" function="internal">
        <lane id=":gneJ36_6_0" index="0" allow="evehicle" speed="7.02" length="16.90" shape="742.91,9.73 746.96,4.77 748.30,1.23 746.91,-0.89 742.80,-1.60"/>
    </edge>
    <edge id=":gneJ36_7" function="internal">
        <lane id=":gneJ36_7_0" index="0" speed="7.72" length="13.09" shape="742.80,1.60 745.25,2.25 747.01,4.18 748.08,7.41 748.44,11.94"/>
    </edge>
    <edge id=":gneJ36_8" function="internal">
        <lane id=":gneJ36_8_0" index="0" speed="8.00" length="14.19" shape="742.80,1.60 746.65,1.05 749.40,-0.60 751.05,-3.35 751.60,-7.20"/>
    </edge>
    <edge id=":gneJ37_0" function="internal">
        <lane id=":gneJ37_0_0" index="0" speed="3.90" length="2.58" shape="748.40,246.80 748.30,247.50 748.00,248.00 747.50,248.30 746.80,248.40"/>
    </edge>
    <edge id=":gneJ37_1" function="internal">
        <lane id=":gneJ37_1_0" index="0" speed="6.08" length="7.74" shape="746.80,251.60 748.90,251.30 750.40,250.40 751.30,248.90 751.60,246.80"/>
    </edge>
    <edge id=":gneJ46_0" function="internal">
        <lane id=":gneJ46_0_0" index="0" speed="13.89" length="7.99" shape="248.31,208.00 248.32,215.99"/>
    </edge>
    <edge id=":gneJ46_1" function="internal">
        <lane id=":gneJ46_1_0" index="0" allow="evehicle" speed="8.21" length="7.47" shape="255.65,213.95 253.84,212.38 252.55,210.86 251.77,209.40 251.51,208.00"/>
    </edge>
    <edge id=":gneJ46_2" function="internal">
        <lane id=":gneJ46_2_0" index="0" allow="evehicle" speed="5.95" length="11.08" shape="255.65,213.95 252.44,211.95 250.14,211.62 248.77,212.97 248.32,215.99"/>
    </edge>
    <edge id=":gneJ46_3" function="internal">
        <lane id=":gneJ46_3_0" index="0" speed="13.89" length="7.98" shape="251.52,215.98 251.51,208.00"/>
    </edge>
    <edge id=":gneJ57_0" function="internal">
        <lane id=":gneJ57_0_0" index="0" allow="evehicle" speed="4.16" length="1.32" shape="263.58,239.68 263.81,239.43 263.97,239.15 264.07,238.84 264.10,238.50"/>
    </edge>
    <edge id=":gneJ58_0" function="internal">
        <lane id=":gneJ58_0_0" index="0" allow="evehicle" speed="4.09" length="1.46" shape="264.10,221.25 264.06,220.88 263.94,220.54 263.75,220.24 263.48,219.98"/>
    </edge>
    <edge id=":gneJ66_0" function="internal">
        <lane id=":gneJ66_0_0" index="0" allow="evehicle" speed="5.77" length="9.16" shape="219.05,-2.10 216.38,-2.52 214.87,-3.65 214.54,-5.50 215.38,-8.07"/>
    </edge>
    <edge id=":gneJ66_1" function="internal">
        <lane id=":gneJ66_1_0" index="0" speed="13.89" length="13.08" shape="219.05,-2.10 205.96,-2.24"/>
    </edge>
    <edge id=":gneJ66_2" function="internal">
        <lane id=":gneJ66_2_0" index="0" speed="13.89" length="13.02" shape="205.97,0.96 218.99,1.10"/>
    </edge>
    <edge id=":gneJ66_3" function="internal">
        <lane id=":gneJ66_3_0" index="0" allow="evehicle" speed="9.61" length="4.25" shape="205.97,0.96 208.45,0.39 209.85,-0.60"/>
    </edge>
    <edge id=":gneJ66_4" function="internal">
        <lane id=":gneJ66_4_0" index="0" allow="evehicle" speed="9.61" length="9.39" shape="209.85,-0.60 210.84,-1.30 213.15,-4.12 215.38,-8.07"/>
    </edge>
    <edge id=":gneJ71_0" function="internal">
        <lane id=":gneJ71_0_0" index="0" allow="evehicle" speed="3.99" length="1.80" shape="217.53,-12.50 217.79,-12.89 218.11,-13.17 218.51,-13.34 218.97,-13.40"/>