<configuration>
   <input>
       <net-file value="EVGrid.net.xml"/>
       <route-files value="electricvehicles.rou.xml"/>
   </input>
   <output>
        <battery-output value="battery.out.xml"/>
        <battery-output.precision value="4"/>
        <device.battery.probability value="1"/>
        <summary-output value="summary-overview.xml"/>
    </output>
   <processing>
    <lateral-resolution value="1." />
   </processing>
</configuration>
