<?xml version="1.0" encoding="UTF-8"?>

<!-- generated on 03/11/21 17:20:04 by Eclipse SUMO netedit Version 1.7.0
<configuration xmlns:xsi="http://www.w3.org/2001/XMLSchema-instance" xsi:noNamespaceSchemaLocation="http://sumo.dlr.de/xsd/netconvertConfiguration.xsd">

    <input>
        <sumo-net-file value="C:\Users\Cole\Documents\Github\EVDetourRouting\EVGrid\data\EVGrid.net.xml"/>
    </input>

    <output>
        <output-file value="C:\Users\Cole\Documents\Github\EVDetourRouting\EVGrid\data\EVGrid.net.xml"/>
    </output>

    <processing>
        <geometry.min-radius.fix.railways value="false"/>
        <geometry.max-grade.fix value="false"/>
        <offset.disable-normalization value="true"/>
        <lefthand value="true"/>
    </processing>

    <junctions>
        <no-turnarounds value="true"/>
        <junctions.corner-detail value="5"/>
        <junctions.limit-turn-speed value="5.5"/>
        <rectangular-lane-cut value="false"/>
    </junctions>

    <pedestrian>
        <walkingareas value="false"/>
    </pedestrian>

    <report>
        <aggregate-warnings value="5"/>
    </report>

</configuration>
-->

<net version="1.6" junctionCornerDetail="5" lefthand="true" limitTurnSpeed="5.50" xmlns:xsi="http://www.w3.org/2001/XMLSchema-instance" xsi:noNamespaceSchemaLocation="http://sumo.dlr.de/xsd/net_file.xsd">

    <location netOffset="0.00,0.00" convBoundary="0.00,-500.00,750.00,250.00" origBoundary="-10000000000.00,-10000000000.00,10000000000.00,10000000000.00" projParameter="!"/>

    <edge id=":gneJ22_0" function="internal">
        <lane id=":gneJ22_0_0" index="0" speed="6.08" length="7.74" shape="-1.60,246.80 -1.30,248.90 -0.40,250.40 1.10,251.30 3.20,251.60"/>
    </edge>
    <edge id=":gneJ22_1" function="internal">
        <lane id=":gneJ22_1_0" index="0" speed="3.90" length="2.58" shape="3.20,248.40 2.50,248.30 2.00,248.00 1.70,247.50 1.60,246.80"/>
    </edge>
    <edge id=":gneJ23_0" function="internal">
        <lane id=":gneJ23_0_0" index="0" speed="5.57" length="9.37" shape="260.25,248.40 257.39,248.04 255.94,246.95 255.91,245.15 257.28,242.62"/>
    </edge>
    <edge id=":gneJ23_1" function="internal">
        <lane id=":gneJ23_1_0" index="0" speed="7.56" length="12.52" shape="260.25,248.40 256.46,247.97 253.75,246.69 252.13,244.56 251.58,241.57"/>
    </edge>
    <edge id=":gneJ23_2" function="internal">
        <lane id=":gneJ23_2_0" index="0" speed="13.89" length="17.45" shape="260.25,248.40 242.79,248.40"/>
    </edge>
    <edge id=":gneJ23_3" function="internal">
        <lane id=":gneJ23_3_0" index="0" speed="13.89" length="17.45" shape="242.79,251.60 260.25,251.60"/>
    </edge>
    <edge id=":gneJ23_4" function="internal">
        <lane id=":gneJ23_4_0" index="0" speed="12.10" length="6.47" shape="242.79,251.60 246.71,251.04 249.00,250.00"/>
    </edge>
    <edge id=":gneJ23_5" function="internal">
        <lane id=":gneJ23_5_0" index="0" speed="8.25" length="5.63" shape="242.79,251.60 246.65,250.97 248.07,250.00"/>
    </edge>
    <edge id=":gneJ23_9" function="internal">
        <lane id=":gneJ23_9_0" index="0" speed="12.10" length="11.22" shape="249.00,250.00 250.43,249.35 253.95,246.55 257.28,242.62"/>
    </edge>
    <edge id=":gneJ23_10" function="internal">
        <lane id=":gneJ23_10_0" index="0" speed="8.25" length="9.57" shape="248.07,250.00 249.40,249.09 251.04,245.96 251.58,241.57"/>
    </edge>
    <edge id=":gneJ23_6" function="internal">
        <lane id=":gneJ23_6_0" index="0" speed="6.82" length="10.03" shape="248.38,241.58 248.04,244.56 246.99,246.69 245.24,247.97 242.79,248.40"/>
    </edge>
    <edge id=":gneJ23_7" function="internal">
        <lane id=":gneJ23_7_0" index="0" speed="8.87" length="17.66" shape="248.38,241.58 249.13,245.96 251.36,249.09 255.06,250.97 260.25,251.60"/>
    </edge>
    <edge id=":gneJ23_8" function="internal">
        <lane id=":gneJ23_8_0" index="0" speed="6.72" length="16.69" shape="248.38,241.58 248.95,246.66 250.62,248.52 253.40,247.18 257.28,242.62"/>
    </edge>
    <edge id=":gneJ24_0" function="internal">
        <lane id=":gneJ24_0_0" index="0" speed="6.51" length="9.03" shape="498.40,242.80 498.05,245.25 497.00,247.00 495.25,248.05 492.80,248.40"/>
    </edge>
    <edge id=":gneJ24_1" function="internal">
        <lane id=":gneJ24_1_0" index="0" speed="8.00" length="14.19" shape="498.40,242.80 498.95,246.65 500.60,249.40 503.35,251.05 507.20,251.60"/>
    </edge>
    <edge id=":gneJ24_2" function="internal">
        <lane id=":gneJ24_2_0" index="0" speed="6.51" length="9.03" shape="507.20,248.40 504.75,248.05 503.00,247.00 501.95,245.25 501.60,242.80"/>
    </edge>
    <edge id=":gneJ24_3" function="internal">
        <lane id=":gneJ24_3_0" index="0" speed="13.89" length="14.40" shape="507.20,248.40 492.80,248.40"/>
    </edge>
    <edge id=":gneJ24_4" function="internal">
        <lane id=":gneJ24_4_0" index="0" speed="13.89" length="14.40" shape="492.80,251.60 507.20,251.60"/>
    </edge>
    <edge id=":gneJ24_5" function="internal">
        <lane id=":gneJ24_5_0" index="0" speed="8.00" length="5.93" shape="492.80,251.60 496.65,251.05 498.40,250.00"/>
    </edge>
    <edge id=":gneJ24_6" function="internal">
        <lane id=":gneJ24_6_0" index="0" speed="8.00" length="8.26" shape="498.40,250.00 499.40,249.40 501.05,246.65 501.60,242.80"/>
    </edge>
    <edge id=":gneJ25_0" function="internal">
        <lane id=":gneJ25_0_0" index="0" speed="6.51" length="9.03" shape="498.40,-7.20 498.05,-4.75 497.00,-3.00 495.25,-1.95 492.80,-1.60"/>
    </edge>
    <edge id=":gneJ25_1" function="internal">
        <lane id=":gneJ25_1_0" index="0" speed="13.89" length="14.40" shape="498.40,-7.20 498.40,7.20"/>
    </edge>
    <edge id=":gneJ25_2" function="internal">
        <lane id=":gneJ25_2_0" index="0" speed="8.00" length="5.93" shape="498.40,-7.20 498.95,-3.35 500.00,-1.60"/>
    </edge>
    <edge id=":gneJ25_12" function="internal">
        <lane id=":gneJ25_12_0" index="0" speed="8.00" length="8.26" shape="500.00,-1.60 500.60,-0.60 503.35,1.05 507.20,1.60"/>
    </edge>
    <edge id=":gneJ25_3" function="internal">
        <lane id=":gneJ25_3_0" index="0" speed="6.51" length="9.03" shape="507.20,-1.60 504.75,-1.95 503.00,-3.00 501.95,-4.75 501.60,-7.20"/>
    </edge>
    <edge id=":gneJ25_4" function="internal">
        <lane id=":gneJ25_4_0" index="0" speed="13.89" length="14.40" shape="507.20,-1.60 492.80,-1.60"/>
    </edge>
    <edge id=":gneJ25_5" function="internal">
        <lane id=":gneJ25_5_0" index="0" speed="8.00" length="14.19" shape="507.20,-1.60 503.35,-1.05 500.60,0.60 498.95,3.35 498.40,7.20"/>
    </edge>
    <edge id=":gneJ25_6" function="internal">
        <lane id=":gneJ25_6_0" index="0" speed="6.51" length="9.03" shape="501.60,7.20 501.95,4.75 503.00,3.00 504.75,1.95 507.20,1.60"/>
    </edge>
    <edge id=":gneJ25_7" function="internal">
        <lane id=":gneJ25_7_0" index="0" speed="13.89" length="14.40" shape="501.60,7.20 501.60,-7.20"/>
    </edge>
    <edge id=":gneJ25_8" function="internal">
        <lane id=":gneJ25_8_0" index="0" speed="8.00" length="5.93" shape="501.60,7.20 501.05,3.35 500.00,1.60"/>
    </edge>
    <edge id=":gneJ25_13" function="internal">
        <lane id=":gneJ25_13_0" index="0" speed="8.00" length="8.26" shape="500.00,1.60 499.40,0.60 496.65,-1.05 492.80,-1.60"/>
    </edge>
    <edge id=":gneJ25_9" function="internal">
        <lane id=":gneJ25_9_0" index="0" speed="6.51" length="9.03" shape="492.80,1.60 495.25,1.95 497.00,3.00 498.05,4.75 498.40,7.20"/>
    </edge>
    <edge id=":gneJ25_10" function="internal">
        <lane id=":gneJ25_10_0" index="0" speed="13.89" length="14.40" shape="492.80,1.60 507.20,1.60"/>
    </edge>
    <edge id=":gneJ25_11" function="internal">
        <lane id=":gneJ25_11_0" index="0" speed="8.00" length="14.19" shape="492.80,1.60 496.65,1.05 499.40,-0.60 501.05,-3.35 501.60,-7.20"/>
    </edge>
    <edge id=":gneJ26_0" function="internal">
        <lane id=":gneJ26_0_0" index="0" speed="6.51" length="9.03" shape="498.40,-257.20 498.05,-254.75 497.00,-253.00 495.25,-251.95 492.80,-251.60"/>
    </edge>
    <edge id=":gneJ26_1" function="internal">
        <lane id=":gneJ26_1_0" index="0" speed="13.89" length="14.40" shape="498.40,-257.20 498.40,-242.80"/>
    </edge>
    <edge id=":gneJ26_2" function="internal">
        <lane id=":gneJ26_2_0" index="0" speed="8.00" length="5.93" shape="498.40,-257.20 498.95,-253.35 500.00,-251.60"/>
    </edge>
    <edge id=":gneJ26_12" function="internal">
        <lane id=":gneJ26_12_0" index="0" speed="8.00" length="8.26" shape="500.00,-251.60 500.60,-250.60 503.35,-248.95 507.20,-248.40"/>
    </edge>
    <edge id=":gneJ26_3" function="internal">
        <lane id=":gneJ26_3_0" index="0" speed="6.51" length="9.03" shape="507.20,-251.60 504.75,-251.95 503.00,-253.00 501.95,-254.75 501.60,-257.20"/>
    </edge>
    <edge id=":gneJ26_4" function="internal">
        <lane id=":gneJ26_4_0" index="0" speed="13.89" length="14.40" shape="507.20,-251.60 492.80,-251.60"/>
    </edge>
    <edge id=":gneJ26_5" function="internal">
        <lane id=":gneJ26_5_0" index="0" speed="8.00" length="14.19" shape="507.20,-251.60 503.35,-251.05 500.60,-249.40 498.95,-246.65 498.40,-242.80"/>
    </edge>
    <edge id=":gneJ26_6" function="internal">
        <lane id=":gneJ26_6_0" index="0" speed="6.51" length="9.03" shape="501.60,-242.80 501.95,-245.25 503.00,-247.00 504.75,-248.05 507.20,-248.40"/>
    </edge>
    <edge id=":gneJ26_7" function="internal">
        <lane id=":gneJ26_7_0" index="0" speed="13.89" length="14.40" shape="501.60,-242.80 501.60,-257.20"/>
    </edge>
    <edge id=":gneJ26_8" function="internal">
        <lane id=":gneJ26_8_0" index="0" speed="8.00" length="5.93" shape="501.60,-242.80 501.05,-246.65 500.00,-248.40"/>
    </edge>
    <edge id=":gneJ26_13" function="internal">
        <lane id=":gneJ26_13_0" index="0" speed="8.00" length="8.26" shape="500.00,-248.40 499.40,-249.40 496.65,-251.05 492.80,-251.60"/>
    </edge>
    <edge id=":gneJ26_9" function="internal">
        <lane id=":gneJ26_9_0" index="0" speed="6.51" length="9.03" shape="492.80,-248.40 495.25,-248.05 497.00,-247.00 498.05,-245.25 498.40,-242.80"/>
    </edge>
    <edge id=":gneJ26_10" function="internal">
        <lane id=":gneJ26_10_0" index="0" speed="13.89" length="14.40" shape="492.80,-248.40 507.20,-248.40"/>
    </edge>
    <edge id=":gneJ26_11" function="internal">
        <lane id=":gneJ26_11_0" index="0" speed="8.00" length="14.19" shape="492.80,-248.40 496.65,-248.95 499.40,-250.60 501.05,-253.35 501.60,-257.20"/>
    </edge>
    <edge id=":gneJ27_0" function="internal">
        <lane id=":gneJ27_0_0" index="0" speed="6.51" length="9.03" shape="248.40,-257.20 248.05,-254.75 247.00,-253.00 245.25,-251.95 242.80,-251.60"/>
    </edge>
    <edge id=":gneJ27_1" function="internal">
        <lane id=":gneJ27_1_0" index="0" speed="13.89" length="14.40" shape="248.40,-257.20 248.40,-242.80"/>
    </edge>
    <edge id=":gneJ27_2" function="internal">
        <lane id=":gneJ27_2_0" index="0" speed="8.00" length="5.93" shape="248.40,-257.20 248.95,-253.35 250.00,-251.60"/>
    </edge>
    <edge id=":gneJ27_12" function="internal">
        <lane id=":gneJ27_12_0" index="0" speed="8.00" length="8.26" shape="250.00,-251.60 250.60,-250.60 253.35,-248.95 257.20,-248.40"/>
    </edge>
    <edge id=":gneJ27_3" function="internal">
        <lane id=":gneJ27_3_0" index="0" speed="6.51" length="9.03" shape="257.20,-251.60 254.75,-251.95 253.00,-253.00 251.95,-254.75 251.60,-257.20"/>
    </edge>
    <edge id=":gneJ27_4" function="internal">
        <lane id=":gneJ27_4_0" index="0" speed="13.89" length="14.40" shape="257.20,-251.60 242.80,-251.60"/>
    </edge>
    <edge id=":gneJ27_5" function="internal">
        <lane id=":gneJ27_5_0" index="0" speed="8.00" length="14.19" shape="257.20,-251.60 253.35,-251.05 250.60,-249.40 248.95,-246.65 248.40,-242.80"/>
    </edge>
    <edge id=":gneJ27_6" function="internal">
        <lane id=":gneJ27_6_0" index="0" speed="6.51" length="9.03" shape="251.60,-242.80 251.95,-245.25 253.00,-247.00 254.75,-248.05 257.20,-248.40"/>
    </edge>
    <edge id=":gneJ27_7" function="internal">
        <lane id=":gneJ27_7_0" index="0" speed="13.89" length="14.40" shape="251.60,-242.80 251.60,-257.20"/>
    </edge>
    <edge id=":gneJ27_8" function="internal">
        <lane id=":gneJ27_8_0" index="0" speed="8.00" length="5.93" shape="251.60,-242.80 251.05,-246.65 250.00,-248.40"/>
    </edge>
    <edge id=":gneJ27_13" function="internal">
        <lane id=":gneJ27_13_0" index="0" speed="8.00" length="8.26" shape="250.00,-248.40 249.40,-249.40 246.65,-251.05 242.80,-251.60"/>
    </edge>
    <edge id=":gneJ27_9" function="internal">
        <lane id=":gneJ27_9_0" index="0" speed="6.51" length="9.03" shape="242.80,-248.40 245.25,-248.05 247.00,-247.00 248.05,-245.25 248.40,-242.80"/>
    </edge>
    <edge id=":gneJ27_10" function="internal">
        <lane id=":gneJ27_10_0" index="0" speed="13.89" length="14.40" shape="242.80,-248.40 257.20,-248.40"/>
    </edge>
    <edge id=":gneJ27_11" function="internal">
        <lane id=":gneJ27_11_0" index="0" speed="8.00" length="14.19" shape="242.80,-248.40 246.65,-248.95 249.40,-250.60 251.05,-253.35 251.60,-257.20"/>
    </edge>
    <edge id=":gneJ28_0" function="internal">
        <lane id=":gneJ28_0_0" index="0" speed="13.89" length="14.40" shape="-1.60,-257.20 -1.60,-242.80"/>
    </edge>
    <edge id=":gneJ28_1" function="internal">
        <lane id=":gneJ28_1_0" index="0" speed="8.00" length="5.93" shape="-1.60,-257.20 -1.05,-253.35 0.00,-251.60"/>
    </edge>
    <edge id=":gneJ28_6" function="internal">
        <lane id=":gneJ28_6_0" index="0" speed="8.00" length="8.26" shape="0.00,-251.60 0.60,-250.60 3.35,-248.95 7.20,-248.40"/>
    </edge>
    <edge id=":gneJ28_2" function="internal">
        <lane id=":gneJ28_2_0" index="0" speed="6.51" length="9.03" shape="7.20,-251.60 4.75,-251.95 3.00,-253.00 1.95,-254.75 1.60,-257.20"/>
    </edge>
    <edge id=":gneJ28_3" function="internal">
        <lane id=":gneJ28_3_0" index="0" speed="8.00" length="14.19" shape="7.20,-251.60 3.35,-251.05 0.60,-249.40 -1.05,-246.65 -1.60,-242.80"/>
    </edge>
    <edge id=":gneJ28_4" function="internal">
        <lane id=":gneJ28_4_0" index="0" speed="6.51" length="9.03" shape="1.60,-242.80 1.95,-245.25 3.00,-247.00 4.75,-248.05 7.20,-248.40"/>
    </edge>
    <edge id=":gneJ28_5" function="internal">
        <lane id=":gneJ28_5_0" index="0" speed="13.89" length="14.40" shape="1.60,-242.80 1.60,-257.20"/>
    </edge>
    <edge id=":gneJ29_0" function="internal">
        <lane id=":gneJ29_0_0" index="0" speed="13.89" length="14.40" shape="-1.60,-7.20 -1.60,7.20"/>
    </edge>
    <edge id=":gneJ29_1" function="internal">
        <lane id=":gneJ29_1_0" index="0" speed="8.00" length="5.93" shape="-1.60,-7.20 -1.05,-3.35 0.00,-1.60"/>
    </edge>
    <edge id=":gneJ29_6" function="internal">
        <lane id=":gneJ29_6_0" index="0" speed="8.00" length="8.26" shape="0.00,-1.60 0.60,-0.60 3.35,1.05 7.20,1.60"/>
    </edge>
    <edge id=":gneJ29_2" function="internal">
        <lane id=":gneJ29_2_0" index="0" speed="6.51" length="9.03" shape="7.20,-1.60 4.75,-1.95 3.00,-3.00 1.95,-4.75 1.60,-7.20"/>
    </edge>
    <edge id=":gneJ29_3" function="internal">
        <lane id=":gneJ29_3_0" index="0" speed="8.00" length="14.19" shape="7.20,-1.60 3.35,-1.05 0.60,0.60 -1.05,3.35 -1.60,7.20"/>
    </edge>
    <edge id=":gneJ29_4" function="internal">
        <lane id=":gneJ29_4_0" index="0" speed="6.51" length="9.03" shape="1.60,7.20 1.95,4.75 3.00,3.00 4.75,1.95 7.20,1.60"/>
    </edge>
    <edge id=":gneJ29_5" function="internal">
        <lane id=":gneJ29_5_0" index="0" speed="13.89" length="14.40" shape="1.60,7.20 1.60,-7.20"/>
    </edge>
    <edge id=":gneJ30_0" function="internal">
        <lane id=":gneJ30_0_0" index="0" speed="6.51" length="9.03" shape="248.40,-7.20 248.05,-4.75 247.00,-3.00 245.25,-1.95 242.80,-1.60"/>
    </edge>
    <edge id=":gneJ30_1" function="internal">
        <lane id=":gneJ30_1_0" index="0" speed="13.89" length="14.40" shape="248.40,-7.20 248.40,7.20"/>
    </edge>
    <edge id=":gneJ30_2" function="internal">
        <lane id=":gneJ30_2_0" index="0" speed="8.00" length="14.19" shape="248.40,-7.20 248.95,-3.35 250.60,-0.60 253.35,1.05 257.20,1.60"/>
    </edge>
    <edge id=":gneJ30_3" function="internal">
        <lane id=":gneJ30_3_0" index="0" speed="6.51" length="9.03" shape="257.20,-1.60 254.75,-1.95 253.00,-3.00 251.95,-4.75 251.60,-7.20"/>
    </edge>
    <edge id=":gneJ30_4" function="internal">
        <lane id=":gneJ30_4_0" index="0" speed="13.89" length="14.40" shape="257.20,-1.60 242.80,-1.60"/>
    </edge>
    <edge id=":gneJ30_5" function="internal">
        <lane id=":gneJ30_5_0" index="0" speed="8.00" length="5.93" shape="257.20,-1.60 253.35,-1.05 251.60,0.00"/>
    </edge>
    <edge id=":gneJ30_12" function="internal">
        <lane id=":gneJ30_12_0" index="0" speed="8.00" length="8.26" shape="251.60,0.00 250.60,0.60 248.95,3.35 248.40,7.20"/>
    </edge>
    <edge id=":gneJ30_6" function="internal">
        <lane id=":gneJ30_6_0" index="0" speed="6.51" length="9.03" shape="251.60,7.20 251.95,4.75 253.00,3.00 254.75,1.95 257.20,1.60"/>
    </edge>
    <edge id=":gneJ30_7" function="internal">
        <lane id=":gneJ30_7_0" index="0" speed="13.89" length="14.40" shape="251.60,7.20 251.60,-7.20"/>
    </edge>
    <edge id=":gneJ30_8" function="internal">
        <lane id=":gneJ30_8_0" index="0" speed="8.00" length="14.19" shape="251.60,7.20 251.05,3.35 249.40,0.60 246.65,-1.05 242.80,-1.60"/>
    </edge>
    <edge id=":gneJ30_9" function="internal">
        <lane id=":gneJ30_9_0" index="0" speed="6.51" length="9.03" shape="242.80,1.60 245.25,1.95 247.00,3.00 248.05,4.75 248.40,7.20"/>
    </edge>
    <edge id=":gneJ30_10" function="internal">
        <lane id=":gneJ30_10_0" index="0" speed="13.89" length="14.40" shape="242.80,1.60 257.20,1.60"/>
    </edge>
    <edge id=":gneJ30_11" function="internal">
        <lane id=":gneJ30_11_0" index="0" speed="8.00" length="5.93" shape="242.80,1.60 246.65,1.05 248.40,0.00"/>
    </edge>
    <edge id=":gneJ30_13" function="internal">
        <lane id=":gneJ30_13_0" index="0" speed="8.00" length="8.26" shape="248.40,0.00 249.40,-0.60 251.05,-3.35 251.60,-7.20"/>
    </edge>
    <edge id=":gneJ31_0" function="internal">
        <lane id=":gneJ31_0_0" index="0" speed="6.08" length="7.74" shape="3.20,-501.60 1.10,-501.30 -0.40,-500.40 -1.30,-498.90 -1.60,-496.80"/>
    </edge>
    <edge id=":gneJ31_1" function="internal">
        <lane id=":gneJ31_1_0" index="0" speed="3.90" length="2.58" shape="1.60,-496.80 1.70,-497.50 2.00,-498.00 2.50,-498.30 3.20,-498.40"/>
    </edge>
    <edge id=":gneJ32_0" function="internal">
        <lane id=":gneJ32_0_0" index="0" speed="13.89" length="14.40" shape="257.20,-501.60 242.80,-501.60"/>
    </edge>
    <edge id=":gneJ32_1" function="internal">
        <lane id=":gneJ32_1_0" index="0" speed="8.00" length="5.93" shape="257.20,-501.60 253.35,-501.05 251.60,-500.00"/>
    </edge>
    <edge id=":gneJ32_6" function="internal">
        <lane id=":gneJ32_6_0" index="0" speed="8.00" length="8.26" shape="251.60,-500.00 250.60,-499.40 248.95,-496.65 248.40,-492.80"/>
    </edge>
    <edge id=":gneJ32_2" function="internal">
        <lane id=":gneJ32_2_0" index="0" speed="6.51" length="9.03" shape="251.60,-492.80 251.95,-495.25 253.00,-497.00 254.75,-498.05 257.20,-498.40"/>
    </edge>
    <edge id=":gneJ32_3" function="internal">
        <lane id=":gneJ32_3_0" index="0" speed="8.00" length="14.19" shape="251.60,-492.80 251.05,-496.65 249.40,-499.40 246.65,-501.05 242.80,-501.60"/>
    </edge>
    <edge id=":gneJ32_4" function="internal">
        <lane id=":gneJ32_4_0" index="0" speed="6.51" length="9.03" shape="242.80,-498.40 245.25,-498.05 247.00,-497.00 248.05,-495.25 248.40,-492.80"/>
    </edge>
    <edge id=":gneJ32_5" function="internal">
        <lane id=":gneJ32_5_0" index="0" speed="13.89" length="14.40" shape="242.80,-498.40 257.20,-498.40"/>
    </edge>
    <edge id=":gneJ33_0" function="internal">
        <lane id=":gneJ33_0_0" index="0" speed="13.89" length="14.40" shape="507.20,-501.60 492.80,-501.60"/>
    </edge>
    <edge id=":gneJ33_1" function="internal">
        <lane id=":gneJ33_1_0" index="0" speed="8.00" length="5.93" shape="507.20,-501.60 503.35,-501.05 501.60,-500.00"/>
    </edge>
    <edge id=":gneJ33_6" function="internal">
        <lane id=":gneJ33_6_0" index="0" speed="8.00" length="8.26" shape="501.60,-500.00 500.60,-499.40 498.95,-496.65 498.40,-492.80"/>
    </edge>
    <edge id=":gneJ33_2" function="internal">
        <lane id=":gneJ33_2_0" index="0" speed="6.51" length="9.03" shape="501.60,-492.80 501.95,-495.25 503.00,-497.00 504.75,-498.05 507.20,-498.40"/>
    </edge>
    <edge id=":gneJ33_3" function="internal">
        <lane id=":gneJ33_3_0" index="0" speed="8.00" length="14.19" shape="501.60,-492.80 501.05,-496.65 499.40,-499.40 496.65,-501.05 492.80,-501.60"/>
    </edge>
    <edge id=":gneJ33_4" function="internal">
        <lane id=":gneJ33_4_0" index="0" speed="6.51" length="9.03" shape="492.80,-498.40 495.25,-498.05 497.00,-497.00 498.05,-495.25 498.40,-492.80"/>
    </edge>
    <edge id=":gneJ33_5" function="internal">
        <lane id=":gneJ33_5_0" index="0" speed="13.89" length="14.40" shape="492.80,-498.40 507.20,-498.40"/>
    </edge>
    <edge id=":gneJ34_0" function="internal">
        <lane id=":gneJ34_0_0" index="0" speed="6.08" length="7.74" shape="751.60,-496.80 751.30,-498.90 750.40,-500.40 748.90,-501.30 746.80,-501.60"/>
    </edge>
    <edge id=":gneJ34_1" function="internal">
        <lane id=":gneJ34_1_0" index="0" speed="3.90" length="2.58" shape="746.80,-498.40 747.50,-498.30 748.00,-498.00 748.30,-497.50 748.40,-496.80"/>
    </edge>
    <edge id=":gneJ35_0" function="internal">
        <lane id=":gneJ35_0_0" index="0" speed="6.51" length="9.03" shape="748.40,-257.20 748.05,-254.75 747.00,-253.00 745.25,-251.95 742.80,-251.60"/>
    </edge>
    <edge id=":gneJ35_1" function="internal">
        <lane id=":gneJ35_1_0" index="0" speed="13.89" length="14.40" shape="748.40,-257.20 748.40,-242.80"/>
    </edge>
    <edge id=":gneJ35_2" function="internal">
        <lane id=":gneJ35_2_0" index="0" speed="13.89" length="14.40" shape="751.60,-242.80 751.60,-257.20"/>
    </edge>
    <edge id=":gneJ35_3" function="internal">
        <lane id=":gneJ35_3_0" index="0" speed="8.00" length="5.93" shape="751.60,-242.80 751.05,-246.65 750.00,-248.40"/>
    </edge>
    <edge id=":gneJ35_6" function="internal">
        <lane id=":gneJ35_6_0" index="0" speed="8.00" length="8.26" shape="750.00,-248.40 749.40,-249.40 746.65,-251.05 742.80,-251.60"/>
    </edge>
    <edge id=":gneJ35_4" function="internal">
        <lane id=":gneJ35_4_0" index="0" speed="6.51" length="9.03" shape="742.80,-248.40 745.25,-248.05 747.00,-247.00 748.05,-245.25 748.40,-242.80"/>
    </edge>
    <edge id=":gneJ35_5" function="internal">
        <lane id=":gneJ35_5_0" index="0" speed="8.00" length="14.19" shape="742.80,-248.40 746.65,-248.95 749.40,-250.60 751.05,-253.35 751.60,-257.20"/>
    </edge>
    <edge id=":gneJ36_0" function="internal">
        <lane id=":gneJ36_0_0" index="0" speed="6.51" length="9.03" shape="748.40,-7.20 748.05,-4.75 747.00,-3.00 745.25,-1.95 742.80,-1.60"/>
    </edge>
    <edge id=":gneJ36_1" function="internal">
        <lane id=":gneJ36_1_0" index="0" speed="13.89" length="14.40" shape="748.40,-7.20 748.40,7.20"/>
    </edge>
    <edge id=":gneJ36_2" function="internal">
        <lane id=":gneJ36_2_0" index="0" speed="13.89" length="14.40" shape="751.60,7.20 751.60,-7.20"/>
    </edge>
    <edge id=":gneJ36_3" function="internal">
        <lane id=":gneJ36_3_0" index="0" speed="8.00" length="5.93" shape="751.60,7.20 751.05,3.35 750.00,1.60"/>
    </edge>
    <edge id=":gneJ36_6" function="internal">
        <lane id=":gneJ36_6_0" index="0" speed="8.00" length="8.26" shape="750.00,1.60 749.40,0.60 746.65,-1.05 742.80,-1.60"/>
    </edge>
    <edge id=":gneJ36_4" function="internal">
        <lane id=":gneJ36_4_0" index="0" speed="6.51" length="9.03" shape="742.80,1.60 745.25,1.95 747.00,3.00 748.05,4.75 748.40,7.20"/>
    </edge>
    <edge id=":gneJ36_5" function="internal">
        <lane id=":gneJ36_5_0" index="0" speed="8.00" length="14.19" shape="742.80,1.60 746.65,1.05 749.40,-0.60 751.05,-3.35 751.60,-7.20"/>
    </edge>
    <edge id=":gneJ37_0" function="internal">
        <lane id=":gneJ37_0_0" index="0" speed="3.90" length="2.58" shape="748.40,246.80 748.30,247.50 748.00,248.00 747.50,248.30 746.80,248.40"/>
    </edge>
    <edge id=":gneJ37_1" function="internal">
        <lane id=":gneJ37_1_0" index="0" speed="6.08" length="7.74" shape="746.80,251.60 748.90,251.30 750.40,250.40 751.30,248.90 751.60,246.80"/>
    </edge>
    <edge id=":gneJ46_0" function="internal">
        <lane id=":gneJ46_0_0" index="0" speed="13.89" length="8.00" shape="248.31,207.98 248.32,215.98"/>
    </edge>
    <edge id=":gneJ46_1" function="internal">
        <lane id=":gneJ46_1_0" index="0" speed="8.19" length="7.47" shape="255.66,213.93 253.84,212.36 252.55,210.85 251.77,209.39 251.51,207.98"/>
    </edge>
    <edge id=":gneJ46_2" function="internal">
        <lane id=":gneJ46_2_0" index="0" speed="5.95" length="11.06" shape="255.66,213.93 252.44,211.94 250.15,211.62 248.77,212.97 248.32,215.98"/>
    </edge>
    <edge id=":gneJ46_3" function="internal">
        <lane id=":gneJ46_3_0" index="0" speed="13.89" length="7.99" shape="251.52,215.97 251.51,207.98"/>
    </edge>
    <edge id=":gneJ49_0" function="internal">
        <lane id=":gneJ49_0_0" index="0" speed="4.39" length="1.06" shape="261.93,236.16 262.10,235.91 262.20,235.71 262.23,235.50 262.23,235.19"/>
    </edge>
    <edge id=":gneJ50_0" function="internal">
        <lane id=":gneJ50_0_0" index="0" speed="4.11" length="1.42" shape="261.79,219.37 261.74,219.00 261.62,218.68 261.43,218.39 261.16,218.14"/>
    </edge>

    <edge id="-gneE46" from="gneJ23" to="gneJ22" priority="-1">
        <lane id="-gneE46_0" index="0" speed="13.89" length="239.59" shape="242.79,248.40 3.20,248.40"/>
    </edge>
    <edge id="-gneE47" from="gneJ24" to="gneJ23" priority="-1">
        <lane id="-gneE47_0" index="0" speed="13.89" length="232.55" shape="492.80,248.40 260.25,248.40"/>
    </edge>
    <edge id="-gneE48" from="gneJ25" to="gneJ24" priority="-1">
        <lane id="-gneE48_0" index="0" speed="13.89" length="235.60" shape="498.40,7.20 498.40,242.80"/>
    </edge>
    <edge id="-gneE49" from="gneJ26" to="gneJ25" priority="-1">
        <lane id="-gneE49_0" index="0" speed="13.89" length="235.60" shape="498.40,-242.80 498.40,-7.20"/>
    </edge>
    <edge id="-gneE50" from="gneJ27" to="gneJ26" priority="-1">
        <lane id="-gneE50_0" index="0" speed="13.89" length="235.60" shape="257.20,-248.40 492.80,-248.40"/>
    </edge>
    <edge id="-gneE51" from="gneJ28" to="gneJ27" priority="-1">
        <lane id="-gneE51_0" index="0" speed="13.89" length="235.60" shape="7.20,-248.40 242.80,-248.40"/>
    </edge>
    <edge id="-gneE52" from="gneJ29" to="gneJ28" priority="-1">
        <lane id="-gneE52_0" index="0" speed="13.89" length="235.60" shape="1.60,-7.20 1.60,-242.80"/>
    </edge>
    <edge id="-gneE53" from="gneJ22" to="gneJ29" priority="-1">
        <lane id="-gneE53_0" index="0" speed="13.89" length="239.60" shape="1.60,246.80 1.60,7.20"/>
    </edge>
    <edge id="-gneE54" from="gneJ30" to="gneJ29" priority="-1">
        <lane id="-gneE54_0" index="0" speed="13.89" length="235.60" shape="242.80,-1.60 7.20,-1.60"/>
    </edge>
    <edge id="-gneE57" from="gneJ27" to="gneJ30" priority="-1">
        <lane id="-gneE57_0" index="0" speed="13.89" length="235.60" shape="248.40,-242.80 248.40,-7.20"/>
    </edge>
    <edge id="-gneE59" from="gneJ25" to="gneJ30" priority="-1">
        <lane id="-gneE59_0" index="0" speed="13.89" length="235.60" shape="492.80,-1.60 257.20,-1.60"/>
    </edge>
    <edge id="-gneE60" from="gneJ31" to="gneJ28" priority="-1">
        <lane id="-gneE60_0" index="0" speed="13.89" length="239.60" shape="-1.60,-496.80 -1.60,-257.20"/>
    </edge>
    <edge id="-gneE61" from="gneJ32" to="gneJ31" priority="-1">
        <lane id="-gneE61_0" index="0" speed="13.89" length="239.60" shape="242.80,-501.60 3.20,-501.60"/>
    </edge>
    <edge id="-gneE62" from="gneJ33" to="gneJ32" priority="-1">
        <lane id="-gneE62_0" index="0" speed="13.89" length="235.60" shape="492.80,-501.60 257.20,-501.60"/>
    </edge>
    <edge id="-gneE63" from="gneJ34" to="gneJ33" priority="-1">
        <lane id="-gneE63_0" index="0" speed="13.89" length="239.60" shape="746.80,-501.60 507.20,-501.60"/>
    </edge>
    <edge id="-gneE64" from="gneJ35" to="gneJ34" priority="-1">
        <lane id="-gneE64_0" index="0" speed="13.89" length="239.60" shape="751.60,-257.20 751.60,-496.80"/>
    </edge>
    <edge id="-gneE65" from="gneJ36" to="gneJ35" priority="-1">
        <lane id="-gneE65_0" index="0" speed="13.89" length="235.60" shape="751.60,-7.20 751.60,-242.80"/>
    </edge>
    <edge id="-gneE66" from="gneJ37" to="gneJ36" priority="-1">
        <lane id="-gneE66_0" index="0" speed="13.89" length="239.60" shape="751.60,246.80 751.60,7.20"/>
    </edge>
    <edge id="-gneE67" from="gneJ24" to="gneJ37" priority="-1">