<?xml version="1.0" encoding="UTF-8"?>

<!-- generated on 03/12/21 09:27:46 by Eclipse SUMO netedit Version 1.7.0
<configuration xmlns:xsi="http://www.w3.org/2001/XMLSchema-instance" xsi:noNamespaceSchemaLocation="http://sumo.dlr.de/xsd/netconvertConfiguration.xsd">

    <input>
        <sumo-net-file value="C:\Users\Cole\Documents\Github\EVDetourRouting\EVGrid\data\EVGrid.net.xml"/>
    </input>

    <output>
        <output-file value="C:\Users\Cole\Documents\Github\EVDetourRouting\EVGrid\data\EVGrid.net.xml"/>
    </output>

    <processing>
        <geometry.min-radius.fix.railways value="false"/>
        <geometry.max-grade.fix value="false"/>
        <offset.disable-normalization value="true"/>
        <lefthand value="true"/>
    </processing>

    <junctions>
        <no-turnarounds value="true"/>
        <junctions.corner-detail value="5"/>
        <junctions.limit-turn-speed value="5.5"/>
        <rectangular-lane-cut value="false"/>
    </junctions>

    <pedestrian>
        <walkingareas value="false"/>
    </pedestrian>

    <netedit>
        <additional-files value="C:\Users\Cole\Documents\Github\EVDetourRouting\EVGrid\data\EVGrid_additionals.add.xml"/>
    </netedit>

    <report>
        <aggregate-warnings value="5"/>
    </report>

</configuration>
-->

<additional xmlns:xsi="http://www.w3.org/2001/XMLSchema-instance" xsi:noNamespaceSchemaLocation="http://sumo.dlr.de/xsd/additional_file.xsd">
    <chargingStation id="chargingStation_gneE46_0_0" lane="gneE46_0" startPos="52.40" endPos="62.40" power="100000.00" efficiency="0.95" />
    <chargingStation id="chargingStation_gneE46_0_1" lane="gneE46_0" startPos="227.91" endPos="237.91" power="100000.00" efficiency="0.95" />
    <chargingStation id="chargingStation_gneE84_0_2" lane="gneE84_0" startPos="0.00" endPos="15.83" power="100000.00" efficiency="0.95" />
</additional>
