<?xml version="1.0" encoding="UTF-8"?>

<!-- generated on 04/29/21 21:45:38 by Eclipse SUMO duarouter Version v1_8_0+1742-ceeb7fe3f3
<configuration xmlns:xsi="http://www.w3.org/2001/XMLSchema-instance" xsi:noNamespaceSchemaLocation="http://sumo.dlr.de/xsd/duarouterConfiguration.xsd">

    <input>
        <net-file value="data/EVGrid.net.xml"/>
        <route-files value="trips.trips.xml"/>
    </input>

    <output>
        <output-file value="data/randroutes.rou.xml"/>
        <alternatives-output value="data/randroutes.rou.alt.xml"/>
    </output>

    <time>
        <begin value="0"/>
        <end value="400"/>
    </time>

    <report>
        <no-warnings value="true"/>
        <ignore-errors value="true"/>
        <no-step-log value="true"/>
    </report>

</configuration>
-->

<routes xmlns:xsi="http://www.w3.org/2001/XMLSchema-instance" xsi:noNamespaceSchemaLocation="http://sumo.dlr.de/xsd/routes_file.xsd">
    <vehicle id="V48#0.0" depart="0.00">
        <route edges="-gneE50 -gneE49 gneE68 -gneE65"/>
    </vehicle>
    <vehicle id="V84#1.0" depart="0.00">
        <route edges="-gneE64 -gneE63 -gneE70 -gneE49 gneE68 gneE125"/>
    </vehicle>
    <vehicle id="V77#2.0" depart="2.00">
        <route edges="-gneE57 -gneE79 -gneE78 -gneE46 -gneE53"/>
    </vehicle>
    <vehicle id="V65#2.0" depart="3.00">
        <route edges="gneE127 -gneE125 -gneE68 -gneE59 gneE57 gneE71 -gneE119"/>
    </vehicle>
    <vehicle id="V85#1.0" depart="7.00">
        <route edges="-gneE64 -gneE63 -gneE70 -gneE49 -gneE48 -gneE47 gneE78 gneE79"/>
    </vehicle>
    <vehicle id="V35#0.0" depart="10.00">
        <route edges="-gneE61 -gneE60 -gneE51 gneE71 -gneE119 -gneE117 -gneE70"/>
    </vehicle>
    <vehicle id="V24#0.0" depart="12.00">
        <route edges="-gneE117 -gneE70 gneE50"/>
    </vehicle>
    <vehicle id="V90#0.0" depart="12.00">
        <route edges="-gneE60 gneE52 gneE106 gneE107 -gneE79 -gneE78 -gneE46"/>
    </vehicle>
    <vehicle id="V93#2.0" depart="12.00">
        <route edges="-gneE106 -gneE52 -gneE51 -gneE57 -gneE79 -gneE78"/>
    </vehicle>
    <vehicle id="V69#2.0" depart="13.00">
        <route edges="gneE79 -gneE107 -gneE106 -gneE52 gneE60 gneE61"/>
    </vehicle>
    <vehicle id="V85#1.1" depart="13.00">
        <route edges="-gneE64 -gneE63 -gneE70 -gneE49 -gneE48 -gneE47 gneE78 gneE79"/>
    </vehicle>
    <vehicle id="V3#2.0" depart="14.00">
        <route edges="gneE107 gneE59 gneE68 -gneE65 -gneE64 -gneE63"/>
    </vehicle>
    <vehicle id="V36#1.0" depart="15.00">
        <route edges="gneE69 gneE65 -gneE68 -gneE59 gneE57 gneE71"/>
    </vehicle>
    <vehicle id="V71#3.0" depart="15.00">
        <route edges="gneE49 gneE69 -gneE64 -gneE63 -gneE70"/>
    </vehicle>
    <vehicle id="V90#3.0" depart="15.00">
        <route edges="-gneE60 gneE52 gneE106 gneE107 -gneE79 -gneE78 -gneE46"/>
    </vehicle>
    <vehicle id="V53#2.0" depart="17.00">
        <route edges="gneE67 -gneE47 gneE78 gneE79 gneE59"/>
    </vehicle>
    <vehicle id="V58#3.0" depart="18.00">
        <route edges="-gneE107 -gneE106 -gneE52 -gneE51"/>
    </vehicle>
    <vehicle id="V72#3.0" depart="21.00">
        <route edges="-gneE60 gneE52 gneE106 gneE107 gneE57 gneE51"/>
    </vehicle>
    <vehicle id="V11#3.0" depart="22.00">
        <route edges="gneE78 gneE79 gneE57 -gneE50 gneE69 gneE65 -gneE68"/>
    </vehicle>
    <vehicle id="V54#1.0" depart="24.00">
        <route edges="-gneE127 gneE67 gneE48 gneE68 -gneE65 -gneE69"/>
    </vehicle>
    <vehicle id="V96#3.0" depart="24.00">
        <route edges="gneE53 gneE46 gneE78 gneE79 gneE59 -gneE48"/>
    </vehicle>
    <vehicle id="V37#0.0" depart="27.00">
        <route edges="gneE53 gneE46 gneE78 gneE79 gneE57 gneE71 -gneE61 -gneE60"/>
    </vehicle>
    <vehicle id="V60#3.0" depart="27.00">
        <route edges="gneE65 -gneE68 gneE49"/>
    </vehicle>
    <vehicle id="V77#3.0" depart="28.00">
        <route edges="-gneE57 -gneE79 -gneE78 -gneE46 -gneE53"/>
    </vehicle>
    <vehicle id="V96#0.0" depart="28.00">
        <route edges="gneE53 gneE46 gneE78 gneE79 gneE59 -gneE48"/>
    </vehicle>
    <vehicle id="V44#1.0" depart="29.00">
        <route edges="gneE48 gneE49 gneE50 gneE51 gneE52 gneE106"/>
    </vehicle>
    <vehicle id="V87#1.0" depart="30.00">
        <route edges="gneE60 gneE61 -gneE119 -gneE117 gneE63 gneE64 gneE65 gneE125 -gneE127 gneE67"/>
    </vehicle>
    <vehicle id="V58#1.0" depart="32.00">
        <route edges="-gneE107 -gneE106 -gneE52 -gneE51"/>
    </vehicle>
    <vehicle id="V51#1.0" depart="33.00">
        <route edges="gneE119 -gneE71 -gneE57 -gneE79 -gneE78 -gneE46 -gneE53"/>
    </vehicle>
    <vehicle id="V66#3.0" depart="33.00">
        <route edges="-gneE65 -gneE69 gneE50 -gneE57"/>
    </vehicle>
    <vehicle id="V33#3.0" depart="34.00">
        <route edges="-gneE106 -gneE52 -gneE51 -gneE50 gneE69 gneE65 -gneE68"/>
    </vehicle>
    <vehicle id="V79#0.0" depart="34.00">
        <route edges="-gneE65 -gneE64 -gneE63 gneE117 gneE119"/>
    </vehicle>
    <vehicle id="V69#3.0" depart="36.00">
        <route edges="gneE79 -gneE107 -gneE106 -gneE52 gneE60 gneE61"/>
    </vehicle>
    <vehicle id="V92#0.0" depart="36.00">
        <route edges="gneE119 -gneE71 -gneE57 gneE59 -gneE48 -gneE47"/>
    </vehicle>
    <vehicle id="V47#1.0" depart="39.00">
        <route edges="-gneE106 -gneE52 -gneE51 -gneE57 -gneE107"/>
    </vehicle>
    <vehicle id="V29#2.0" depart="40.00">
        <route edges="-gneE61 -gneE60 gneE52 gneE106 gneE107 -gneE79 -gneE78 -gneE46 -gneE53"/>
    </vehicle>
    <vehicle id="V62#3.0" depart="41.00">
        <route edges="-gneE70 -gneE49 -gneE48 -gneE47 gneE78 gneE79"/>
    </vehicle>
    <vehicle id="V13#1.0" depart="42.00">
        <route edges="-gneE50 -gneE49 -gneE48"/>
    </vehicle>
    <vehicle id="V49#2.0" depart="42.00">
        <route edges="-gneE50 -gneE49 -gneE48 -gneE47"/>
    </vehicle>
    <vehicle id="V14#0.0" depart="43.00">
        <route edges="-gneE61 -gneE60 gneE52 gneE106 gneE107"/>
    </vehicle>
    <vehicle id="V17#1.0" depart="44.00">
        <route edges="gneE117 gneE119 -gneE71 -gneE50 gneE69 -gneE64 -gneE63"/>
    </vehicle>
    <vehicle id="V28#1.0" depart="46.00">
        <route edges="gneE119 -gneE71 gneE51"/>
    </vehicle>
    <vehicle id="V71#1.0" depart="46.00">
        <route edges="gneE49 gneE69 -gneE64 -gneE63 -gneE70"/>
    </vehicle>
    <vehicle id="V10#1.0" depart="47.00">
        <route edges="gneE59 gneE49 gneE50 -gneE57"/>
    </vehicle>
    <vehicle id="V52#1.0" depart="47.00">
        <route edges="gneE68 -gneE65 -gneE64 -gneE63 gneE117 gneE119"/>
    </vehicle>
    <vehicle id="V63#1.0" depart="47.00">
        <route edges="-gneE69 -gneE49 gneE68 -gneE65 -gneE64 -gneE63"/>
    </vehicle>
    <vehicle id="V46#0.0" depart="48.00">
        <route edges="gneE63 gneE64 -gneE69 gneE50 gneE51"/>
    </vehicle>
    <vehicle id="V17#2.0" depart="50.00">
        <route edges="gneE117 gneE119 -gneE71 -gneE50 gneE69 -gneE64 -gneE63"/>
    </vehicle>
    <vehicle id="V43#1.0" depart="50.00">
        <route edges="-gneE64 -gneE63 gneE117 gneE119 -gneE61 -gneE60 gneE52 gneE106"/>
    </vehicle>
    <vehicle id="V57#1.0" depart="51.00">
        <route edges="-gneE52 gneE60 gneE61 -gneE119"/>
    </vehicle>
    <vehicle id="V28#1.1" depart="52.00">
        <route edges="gneE119 -gneE71 gneE51"/>
    </vehicle>
    <vehicle id="V5#2.0" depart="52.00">
        <route edges="gneE69 -gneE64 -gneE63 gneE117 gneE119 -gneE61 -gneE60 gneE52"/>
    </vehicle>
    <vehicle id="V78#2.0" depart="52.00">
        <route edges="gneE48 -gneE59 -gneE79 -gneE78 -gneE46"/>
    </vehicle>
    <vehicle id="V86#1.0" depart="52.00">
        <route edges="-gneE63 -gneE70"/>
    </vehicle>
    <vehicle id="V21#0.0" depart="54.00">
        <route edges="gneE65 -gneE68 gneE49 gneE70 gneE63"/>
    </vehicle>
    <vehicle id="V26#0.0" depart="54.00">
        <route edges="gneE50 -gneE57 -gneE79 -gneE78 gneE47 gneE48"/>
    </vehicle>
    <vehicle id="V39#1.0" depart="54.00">
        <route edges="-gneE71 -gneE57 -gneE107 -gneE106 gneE53 gneE46 gneE78 gneE79"/>
    </vehicle>
    <vehicle id="V62#2.0" depart="56.00">
        <route edges="-gneE70 -gneE49 -gneE48 -gneE47 gneE78 gneE79"/>
    </vehicle>
    <vehicle id="V2#1.0" depart="58.00">
        <route edges="gneE64 gneE65 -gneE68 -gneE59 gneE57"/>
    </vehicle>
    <vehicle id="V87#2.0" depart="58.00">
        <route edges="gneE60 gneE61 -gneE119 -gneE117 gneE63 gneE64 gneE65 gneE125 -gneE127 gneE67"/>
    </vehicle>
    <vehicle id="V20#0.0" depart="60.00">
        <route edges="gneE60 gneE61 -gneE119 -gneE117 gneE63 gneE64 -gneE69"/>
    </vehicle>
    <vehicle id="V24#2.0" depart="61.00">
        <route edges="-gneE117 -gneE70 gneE50"/>
    </vehicle>
    <vehicle id="V80#2.0" depart="61.00">
        <route edges="gneE60 gneE61 -gneE71 -gneE57 -gneE107 -gneE106 -gneE52 -gneE51"/>
    </vehicle>
    <vehicle id="V51#1.1" depart="62.00">
        <route edges="gneE119 -gneE71 -gneE57 -gneE79 -gneE78 -gneE46 -gneE53"/>
    </vehicle>
    <vehicle id="V47#1.1" depart="66.00">
        <route edges="-gneE106 -gneE52 -gneE51 -gneE57 -gneE107"/>
    </vehicle>
    <vehicle id="V4#3.0" depart="67.00">
        <route edges="gneE46 gneE78 gneE79 gneE57 gneE71 -gneE61 -gneE60"/>
    </vehicle>
    <vehicle id="V83#1.0" depart="67.00">
        <route edges="gneE49 gneE69 gneE65 -gneE68"/>
    </vehicle>
    <vehicle id="V85#1.2" depart="68.00">
        <route edges="-gneE64 -gneE63 -gneE70 -gneE49 -gneE48 -gneE47 gneE78 gneE79"/>
    </vehicle>
    <vehicle id="V1#1.0" depart="69.00">
        <route edges="-gneE59 -gneE79"/>
    </vehicle>
    <vehicle id="V4#2.0" depart="70.00">
        <route edges="gneE46 gneE78 gneE79 gneE57 gneE71 -gneE61 -gneE60"/>
    </vehicle>
    <vehicle id="V75#0.0" depart="70.00">
        <route edges="-gneE119 -gneE117 -gneE70 -gneE49 -gneE59 -gneE107"/>
    </vehicle>
    <vehicle id="V52#1.1" depart="71.00">
        <route edges="gneE68 -gneE65 -gneE64 -gneE63 gneE117 gneE119"/>
    </vehicle>
    <vehicle id="V10#0.0" depart="72.00">
        <route edges="gneE59 gneE49 gneE50 -gneE57"/>
    </vehicle>
    <vehicle id="V15#0.0" depart="72.00">
        <route edges="gneE61 -gneE119 -gneE117 -gneE70 -gneE49 -gneE59 gneE57"/>
    </vehicle>
    <vehicle id="V96#0.1" depart="73.00">
        <route edges="gneE53 gneE46 gneE78 gneE79 gneE59 -gneE48"/>
    </vehicle>
    <vehicle id="V86#1.1" depart="74.00">
        <route edges="-gneE63 -gneE70"/>
    </vehicle>
    <vehicle id="V19#1.0" depart="75.00">
        <route edges="gneE50 gneE71 -gneE119 -gneE117 gneE63 gneE64 gneE65"/>
    </vehicle>
    <vehicle id="V9#2.0" depart="75.00">
        <route edges="-gneE117 -gneE70 -gneE49 -gneE59 -gneE79"/>
    </vehicle>
    <vehicle id="V52#2.0" depart="76.00">
        <route edges="gneE68 -gneE65 -gneE64 -gneE63 gneE117 gneE119"/>
    </vehicle>
    <vehicle id="V38#0.0" depart="77.00">
        <route edges="-gneE127 gneE67 -gneE47 gneE78 gneE79 -gneE107 -gneE106 gneE53"/>
    </vehicle>
    <vehicle id="V40#1.0" depart="77.00">
        <route edges="gneE65 -gneE68 gneE49 gneE70 gneE117 gneE119 -gneE61"/>
    </vehicle>
    <vehicle id="V66#0.0" depart="79.00">
        <route edges="-gneE65 -gneE69 gneE50 -gneE57"/>
    </vehicle>
    <vehicle id="V2#2.0" depart="80.00">
        <route edges="gneE64 gneE65 -gneE68 -gneE59 gneE57"/>
    </vehicle>
    <vehicle id="V65#3.0" depart="81.00">
        <route edges="gneE127 -gneE125 -gneE68 -gneE59 gneE57 gneE71 -gneE119"/>
    </vehicle>
    <vehicle id="V88#0.0" depart="82.00">
        <route edges="gneE69 gneE65 -gneE68 -gneE59 -gneE107 -gneE106"/>
    </vehicle>
    <vehicle id="V20#3.0" depart="85.00">
        <route edges="gneE60 gneE61 -gneE119 -gneE117 gneE63 gneE64 -gneE69"/>
    </vehicle>
    <vehicle id="V18#0.0" depart="86.00">
        <route edges="-gneE127 gneE67 -gneE47 gneE78 gneE79 -gneE107 -gneE106"/>
    </vehicle>
    <vehicle id="V27#2.0" depart="86.00">
        <route edges="-gneE79 -gneE78 gneE47 -gneE67 gneE127"/>
    </vehicle>
    <vehicle id="V61#3.0" depart="91.00">
        <route edges="gneE127 -gneE125 -gneE68 -gneE59 gneE57"/>
    </vehicle>
    <vehicle id="V16#0.0" depart="93.00">
        <route edges="-gneE53 -gneE52 -gneE51 -gneE50 gneE69 -gneE64"/>
    </vehicle>
    <vehicle id="V4#0.0" depart="94.00">
        <route edges="gneE46 gneE78 gneE79 gneE57 gneE71 -gneE61 -gneE60"/>
    </vehicle>
    <vehicle id="V58#0.0" depart="94.00">
        <route edges="-gneE107 -gneE106 -gneE52 -gneE51"/>
    </vehicle>
    <vehicle id="V25#3.0" depart="97.00">
        <route edges="gneE48 -gneE59 -gneE79"/>
    </vehicle>
    <vehicle id="V92#1.0" depart="97.00">
        <route edges="gneE119 -gneE71 -gneE57 gneE59 -gneE48 -gneE47"/>
    </vehicle>
    <vehicle id="V88#2.0" depart="99.00">
        <route edges="gneE69 gneE65 -gneE68 -gneE59 -gneE107 -gneE106"/>
    </vehicle>
    <vehicle id="V13#3.0" depart="102.00">
        <route edges="-gneE50 -gneE49 -gneE48"/>
    </vehicle>
    <vehicle id="V56#1.0" depart="102.00">
        <route edges="-gneE53 -gneE52 -gneE51 -gneE57 -gneE107 -gneE106"/>
    </vehicle>
    <vehicle id="V50#1.0" depart="104.00">
        <route edges="-gneE71 -gneE50 -gneE49 -gneE59"/>
    </vehicle>
    <vehicle id="V82#0.0" depart="105.00">
        <route edges="-gneE52 -gneE51"/>
    </vehicle>
    <vehicle id="V26#1.0" depart="108.00">
        <route edges="gneE50 -gneE57 -gneE79 -gneE78 gneE47 gneE48"/>
    </vehicle>
    <vehicle id="V37#0.1" depart="114.00">
        <route edges="gneE53 gneE46 gneE78 gneE79 gneE57 gneE71 -gneE61 -gneE60"/>
    </vehicle>
    <vehicle id="V4#0.1" depart="114.00">
        <route edges="gneE46 gneE78 gneE79 gneE57 gneE71 -gneE61 -gneE60"/>
    </vehicle>
    <vehicle id="V44#3.0" depart="114.00">
        <route edges="gneE48 gneE49 gneE50 gneE51 gneE52 gneE106"/>
    </vehicle>
    <vehicle id="V77#0.0" depart="114.00">
        <route edges="-gneE57 -gneE79 -gneE78 -gneE46 -gneE53"/>
    </vehicle>
    <vehicle id="V55#1.0" depart="115.00">
        <route edges="-gneE67 gneE127 -gneE125 -gneE68 gneE49 gneE70 gneE63 gneE64"/>
    </vehicle>
    <vehicle id="V87#3.0" depart="116.00">
        <route edges="gneE60 gneE61 -gneE119 -gneE117 gneE63 gneE64 gneE65 gneE125 -gneE127 gneE67"/>
    </vehicle>
    <vehicle id="V98#3.0" depart="116.00">
        <route edges="-gneE119 -gneE117 -gneE70 gneE50 -gneE57"/>
    </vehicle>
    <vehicle id="V74#1.0" depart="117.00">
        <route edges="-gneE57 gneE59 gneE68 -gneE65 -gneE69"/>
    </vehicle>
    <vehicle id="V58#2.0" depart="118.00">
        <route edges="-gneE107 -gneE106 -gneE52 -gneE51"/>
    </vehicle>
    <vehicle id="V70#0.0" depart="118.00">
        <route edges="-gneE60 gneE52 gneE53 gneE46 gneE47 gneE48"/>
    </vehicle>
    <vehicle id="V65#0.0" depart="119.00">
        <route edges="gneE127 -gneE125 -gneE68 -gneE59 gneE57 gneE71 -gneE119"/>
    </vehicle>
    <vehicle id="V53#2.1" depart="120.00">
        <route edges="gneE67 -gneE47 gneE78 gneE79 gneE59"/>
    </vehicle>
    <vehicle id="V12#2.0" depart="122.00">
        <route edges="-gneE71 -gneE50 gneE70 gneE63 gneE64"/>
    </vehicle>
    <vehicle id="V17#0.0" depart="122.00">
        <route edges="gneE117 gneE119 -gneE71 -gneE50 gneE69 -gneE64 -gneE63"/>
    </vehicle>
    <vehicle id="V68#3.0" depart="123.00">
        <route edges="gneE78"/>
    </vehicle>
    <vehicle id="V86#3.0" depart="123.00">
        <route edges="-gneE63 -gneE70"/>
    </vehicle>
    <vehicle id="V87#3.1" depart="123.00">
        <route edges="gneE60 gneE61 -gneE119 -gneE117 gneE63 gneE64 gneE65 gneE125 -gneE127 gneE67"/>
    </vehicle>
    <vehicle id="V9#3.0" depart="126.00">
        <route edges="-gneE117 -gneE70 -gneE49 -gneE59 -gneE79"/>
    </vehicle>
    <vehicle id="V92#3.0" depart="127.00">
        <route edges="gneE119 -gneE71 -gneE57 gneE59 -gneE48 -gneE47"/>
    </vehicle>
    <vehicle id="V43#3.0" depart="128.00">
        <route edges="-gneE64 -gneE63 gneE117 gneE119 -gneE61 -gneE60 gneE52 gneE106"/>
    </vehicle>
    <vehicle id="V26#0.1" depart="129.00">
        <route edges="gneE50 -gneE57 -gneE79 -gneE78 gneE47 gneE48"/>
    </vehicle>
    <vehicle id="V34#3.0" depart="129.00">
        <route edges="-gneE119 -gneE117 gneE63 gneE64 gneE65 -gneE68"/>
    </vehicle>
    <vehicle id="V40#1.1" depart="129.00">
        <route edges="gneE65 -gneE68 gneE49 gneE70 gneE117 gneE119 -gneE61"/>
    </vehicle>
    <vehicle id="V87#0.0" depart="129.00">
        <route edges="gneE60 gneE61 -gneE119 -gneE117 gneE63 gneE64 gneE65 gneE125 -gneE127 gneE67"/>
    </vehicle>
    <vehicle id="V98#3.1" depart="129.00">
        <route edges="-gneE119 -gneE117 -gneE70 gneE50 -gneE57"/>
    </vehicle>
    <vehicle id="V92#2.0" depart="132.00">
        <route edges="gneE119 -gneE71 -gneE57 gneE59 -gneE48 -gneE47"/>
    </vehicle>
    <vehicle id="V7#3.0" depart="133.00">
        <route edges="gneE106 gneE107 gneE57 gneE71 -gneE61"/>
    </vehicle>
    <vehicle id="V79#1.0" depart="133.00">
        <route edges="-gneE65 -gneE64 -gneE63 gneE117 gneE119"/>
    </vehicle>
    <vehicle id="V49#0.0" depart="134.00">
        <route edges="-gneE50 -gneE49 -gneE48 -gneE47"/>
    </vehicle>
    <vehicle id="V37#3.0" depart="135.00">
        <route edges="gneE53 gneE46 gneE78 gneE79 gneE57 gneE71 -gneE61 -gneE60"/>
    </vehicle>
    <vehicle id="V60#3.1" depart="135.00">
        <route edges="gneE65 -gneE68 gneE49"/>
    </vehicle>
    <vehicle id="V52#3.0" depart="138.00">
        <route edges="gneE68 -gneE65 -gneE64 -gneE63 gneE117 gneE119"/>
    </vehicle>
    <vehicle id="V42#0.0" depart="140.00">
        <route edges="-gneE60 -gneE51 -gneE57 -gneE107"/>
    </vehicle>
    <vehicle id="V70#1.0" depart="140.00">
        <route edges="-gneE60 gneE52 gneE53 gneE46 gneE47 gneE48"/>
    </vehicle>
    <vehicle id="V87#3.2" depart="142.00">
        <route edges="gneE60 gneE61 -gneE119 -gneE117 gneE63 gneE64 gneE65 gneE125 -gneE127 gneE67"/>
    </vehicle>
    <vehicle id="V11#1.0" depart="144.00">
        <route edges="gneE78 gneE79 gneE57 -gneE50 gneE69 gneE65 -gneE68"/>
    </vehicle>
    <vehicle id="V23#2.0" depart="144.00">
        <route edges="-gneE49 -gneE59 -gneE107 -gneE106"/>
    </vehicle>
    <vehicle id="V57#2.0" depart="145.00">
        <route edges="-gneE52 gneE60 gneE61 -gneE119"/>
    </vehicle>
    <vehicle id="V74#1.1" depart="147.00">
        <route edges="-gneE57 gneE59 gneE68 -gneE65 -gneE69"/>
    </vehicle>
    <vehicle id="V3#2.1" depart="148.00">
        <route edges="gneE107 gneE59 gneE68 -gneE65 -gneE64 -gneE63"/>
    </vehicle>
    <vehicle id="V19#0.0" depart="149.00">
        <route edges="gneE50 gneE71 -gneE119 -gneE117 gneE63 gneE64 gneE65"/>
    </vehicle>
    <vehicle id="V50#3.0" depart="149.00">
        <route edges="-gneE71 -gneE50 -gneE49 -gneE59"/>
    </vehicle>
    <vehicle id="V8#1.0" depart="149.00">
        <route edges="-gneE119 -gneE117 -gneE70 gneE69 -gneE64"/>
    </vehicle>
    <vehicle id="V50#0.0" depart="150.00">
        <route edges="-gneE71 -gneE50 -gneE49 -gneE59"/>
    </vehicle>
    <vehicle id="V0#0.0" depart="153.00">
        <route edges="gneE119 -gneE71 -gneE57 -gneE79 -gneE78 gneE47 gneE48"/>
    </vehicle>
    <vehicle id="V38#0.1" depart="154.00">
        <route edges="-gneE127 gneE67 -gneE47 gneE78 gneE79 -gneE107 -gneE106 gneE53"/>
    </vehicle>
    <vehicle id="V42#2.0" depart="156.00">
        <route edges="-gneE60 -gneE51 -gneE57 -gneE107"/>
    </vehicle>
    <vehicle id="V81#3.0" depart="157.00">
        <route edges="gneE107 gneE57 gneE51 gneE52 gneE53 gneE46"/>
    </vehicle>
    <vehicle id="V16#0.1" depart="159.00">
        <route edges="-gneE53 -gneE52 -gneE51 -gneE50 gneE69 -gneE64"/>
    </vehicle>
    <vehicle id="V63#1.1" depart="160.00">
        <route edges="-gneE69 -gneE49 gneE68 -gneE65 -gneE64 -gneE63"/>
    </vehicle>
    <vehicle id="V32#3.0" depart="163.00">
        <route edges="gneE50 -gneE57 -gneE107 -gneE106 gneE53"/>
    </vehicle>
    <vehicle id="V77#2.1" depart="165.00">
        <route edges="-gneE57 -gneE79 -gneE78 -gneE46 -gneE53"/>
    </vehicle>
    <vehicle id="V4#2.1" depart="167.00">
        <route edges="gneE46 gneE78 gneE79 gneE57 gneE71 -gneE61 -gneE60"/>
    </vehicle>
    <vehicle id="V44#1.1" depart="167.00">
        <route edges="gneE48 gneE49 gneE50 gneE51 gneE52 gneE106"/>
    </vehicle>
    <vehicle id="V37#0.2" depart="168.00">
        <route edges="gneE53 gneE46 gneE78 gneE79 gneE57 gneE71 -gneE61 -gneE60"/>
    </vehicle>
    <vehicle id="V10#1.1" depart="169.00">
        <route edges="gneE59 gneE49 gneE50 -gneE57"/>
    </vehicle>
    <vehicle id="V14#0.1" depart="169.00">
        <route edges="-gneE61 -gneE60 gneE52 gneE106 gneE107"/>
    </vehicle>
    <vehicle id="V6#0.0" depart="169.00">
        <route edges="gneE68 -gneE65 -gneE64 -gneE63 gneE117 gneE119 -gneE61 -gneE60"/>
    </vehicle>
    <vehicle id="V82#0.1" depart="171.00">
        <route edges="-gneE52 -gneE51"/>
    </vehicle>
    <vehicle id="V86#1.2" depart="173.00">
        <route edges="-gneE63 -gneE70"/>
    </vehicle>
    <vehicle id="V98#0.0" depart="175.00">
        <route edges="-gneE119 -gneE117 -gneE70 gneE50 -gneE57"/>
    </vehicle>
    <vehicle id="V41#3.0" depart="178.00">
        <route edges="-gneE68 -gneE48 -gneE47 -gneE46 -gneE53"/>
    </vehicle>
    <vehicle id="V72#1.0" depart="178.00">
        <route edges="-gneE60 gneE52 gneE106 gneE107 gneE57 gneE51"/>
    </vehicle>
    <vehicle id="V97#0.0" depart="178.00">
        <route edges="-gneE127 gneE67 gneE48 gneE49 gneE70 gneE117 gneE119"/>
    </vehicle>
    <vehicle id="V69#3.1" depart="180.00">
        <route edges="gneE79 -gneE107 -gneE106 -gneE52 gneE60 gneE61"/>
    </vehicle>
    <vehicle id="V9#2.1" depart="181.00">
        <route edges="-gneE117 -gneE70 -gneE49 -gneE59 -gneE79"/>
    </vehicle>
    <vehicle id="V91#0.0" depart="181.00">
        <route edges="gneE65 -gneE68 -gneE59"/>
    </vehicle>
    <vehicle id="V34#2.0" depart="183.00">
        <route edges="-gneE119 -gneE117 gneE63 gneE64 gneE65 -gneE68"/>
    </vehicle>
    <vehicle id="V89#1.0" depart="183.00">
        <route edges="-gneE107 -gneE106"/>
    </vehicle>
    <vehicle id="V56#0.0" depart="185.00">
        <route edges="-gneE53 -gneE52 -gneE51 -gneE57 -gneE107 -gneE106"/>
    </vehicle>
    <vehicle id="V89#1.1" depart="185.00">
        <route edges="-gneE107 -gneE106"/>
    </vehicle>
    <vehicle id="V27#0.0" depart="186.00">
        <route edges="-gneE79 -gneE78 gneE47 -gneE67 gneE127"/>
    </vehicle>
    <vehicle id="V43#2.0" depart="186.00">
        <route edges="-gneE64 -gneE63 gneE117 gneE119 -gneE61 -gneE60 gneE52 gneE106"/>
    </vehicle>
    <vehicle id="V27#1.0" depart="187.00">
        <route edges="-gneE79 -gneE78 gneE47 -gneE67 gneE127"/>
    </vehicle>
    <vehicle id="V3#1.0" depart="188.00">
        <route edges="gneE107 gneE59 gneE68 -gneE65 -gneE64 -gneE63"/>
    </vehicle>
    <vehicle id="V42#2.1" depart="188.00">
        <route edges="-gneE60 -gneE51 -gneE57 -gneE107"/>
    </vehicle>
    <vehicle id="V58#0.1" depart="188.00">
        <route edges="-gneE107 -gneE106 -gneE52 -gneE51"/>
    </vehicle>
    <vehicle id="V26#1.1" depart="189.00">
        <route edges="gneE50 -gneE57 -gneE79 -gneE78 gneE47 gneE48"/>
    </vehicle>
    <vehicle id="V60#0.0" depart="189.00">
        <route edges="gneE65 -gneE68 gneE49"/>
    </vehicle>
    <vehicle id="V95#2.0" depart="189.00">
        <route edges="-gneE125 -gneE68 -gneE59 -gneE107 -gneE106 -gneE52 gneE60"/>
    </vehicle>
    <vehicle id="V76#1.0" depart="191.00">
        <route edges="-gneE78 -gneE46 -gneE53 -gneE52 -gneE51 -gneE57"/>
    </vehicle>
    <vehicle id="V87#1.1" depart="192.00">
        <route edges="gneE60 gneE61 -gneE119 -gneE117 gneE63 gneE64 gneE65 gneE125 -gneE127 gneE67"/>
    </vehicle>
    <vehicle id="V61#0.0" depart="193.00">
        <route edges="gneE127 -gneE125 -gneE68 -gneE59 gneE57"/>
    </vehicle>
    <vehicle id="V39#1.1" depart="194.00">
        <route edges="-gneE71 -gneE57 -gneE107 -gneE106 gneE53 gneE46 gneE78 gneE79"/>
    </vehicle>
    <vehicle id="V92#3.1" depart="194.00">
        <route edges="gneE119 -gneE71 -gneE57 gneE59 -gneE48 -gneE47"/>
    </vehicle>
    <vehicle id="V21#2.0" depart="207.00">
        <route edges="gneE65 -gneE68 gneE49 gneE70 gneE63"/>
    </vehicle>
    <vehicle id="V93#3.0" depart="209.00">
        <route edges="-gneE106 -gneE52 -gneE51 -gneE57 -gneE79 -gneE78"/>
    </vehicle>
    <vehicle id="V55#2.0" depart="211.00">
        <route edges="-gneE67 gneE127 -gneE125 -gneE68 gneE49 gneE70 gneE63 gneE64"/>
    </vehicle>
    <vehicle id="V91#0.1" depart="211.00">
        <route edges="gneE65 -gneE68 -gneE59"/>
    </vehicle>
    <vehicle id="V79#1.1" depart="212.00">
        <route edges="-gneE65 -gneE64 -gneE63 gneE117 gneE119"/>
    </vehicle>
    <vehicle id="V93#2.1" depart="212.00">
        <route edges="-gneE106 -gneE52 -gneE51 -gneE57 -gneE79 -gneE78"/>
    </vehicle>
    <vehicle id="V1#1.1" depart="213.00">
        <route edges="-gneE59 -gneE79"/>
    </vehicle>
    <vehicle id="V58#0.2" depart="213.00">
        <route edges="-gneE107 -gneE106 -gneE52 -gneE51"/>
    </vehicle>
    <vehicle id="V20#3.1" depart="215.00">
        <route edges="gneE60 gneE61 -gneE119 -gneE117 gneE63 gneE64 -gneE69"/>
    </vehicle>
    <vehicle id="V47#1.2" depart="216.00">
        <route edges="-gneE106 -gneE52 -gneE51 -gneE57 -gneE107"/>
    </vehicle>
    <vehicle id="V49#0.1" depart="216.00">
        <route edges="-gneE50 -gneE49 -gneE48 -gneE47"/>
    </vehicle>
    <vehicle id="V71#3.1" depart="216.00">
        <route edges="gneE49 gneE69 -gneE64 -gneE63 -gneE70"/>
    </vehicle>
    <vehicle id="V49#2.1" depart="217.00">
        <route edges="-gneE50 -gneE49 -gneE48 -gneE47"/>
    </vehicle>
    <vehicle id="V60#2.0" depart="218.00">
        <route edges="gneE65 -gneE68 gneE49"/>
    </vehicle>
    <vehicle id="V3#1.1" depart="221.00">
        <route edges="gneE107 gneE59 gneE68 -gneE65 -gneE64 -gneE63"/>
    </vehicle>
    <vehicle id="V36#3.0" depart="222.00">
        <route edges="gneE69 gneE65 -gneE68 -gneE59 gneE57 gneE71"/>
    </vehicle>
    <vehicle id="V6#2.0" depart="224.00">
        <route edges="gneE68 -gneE65 -gneE64 -gneE63 gneE117 gneE119 -gneE61 -gneE60"/>
    </vehicle>
    <vehicle id="V29#0.0" depart="226.00">
        <route edges="-gneE61 -gneE60 gneE52 gneE106 gneE107 -gneE79 -gneE78 -gneE46 -gneE53"/>
    </vehicle>
    <vehicle id="V62#2.1" depart="226.00">
        <route edges="-gneE70 -gneE49 -gneE48 -gneE47 gneE78 gneE79"/>
    </vehicle>
    <vehicle id="V1#2.0" depart="227.00">
        <route edges="-gneE59 -gneE79"/>
    </vehicle>
    <vehicle id="V8#0.0" depart="227.00">
        <route edges="-gneE119 -gneE117 -gneE70 gneE69 -gneE64"/>
    </vehicle>
    <vehicle id="V45#2.0" depart="228.00">
        <route edges="gneE61 -gneE71 gneE51"/>
    </vehicle>
    <vehicle id="V6#1.0" depart="228.00">
        <route edges="gneE68 -gneE65 -gneE64 -gneE63 gneE117 gneE119 -gneE61 -gneE60"/>
    </vehicle>
    <vehicle id="V65#3.1" depart="228.00">
        <route edges="gneE127 -gneE125 -gneE68 -gneE59 gneE57 gneE71 -gneE119"/>
    </vehicle>
    <vehicle id="V33#0.0" depart="229.00">
        <route edges="-gneE106 -gneE52 -gneE51 -gneE50 gneE69 gneE65 -gneE68"/>
    </vehicle>
    <vehicle id="V43#3.1" depart="231.00">
        <route edges="-gneE64 -gneE63 gneE117 gneE119 -gneE61 -gneE60 gneE52 gneE106"/>
    </vehicle>
    <vehicle id="V88#0.1" depart="231.00">
        <route edges="gneE69 gneE65 -gneE68 -gneE59 -gneE107 -gneE106"/>
    </vehicle>
    <vehicle id="V79#2.0" depart="234.00">
        <route edges="-gneE65 -gneE64 -gneE63 gneE117 gneE119"/>
    </vehicle>
    <vehicle id="V82#1.0" depart="234.00">
        <route edges="-gneE52 -gneE51"/>
    </vehicle>
    <vehicle id="V43#0.0" depart="235.00">
        <route edges="-gneE64 -gneE63 gneE117 gneE119 -gneE61 -gneE60 gneE52 gneE106"/>
    </vehicle>
    <vehicle id="V33#2.0" depart="239.00">
        <route edges="-gneE106 -gneE52 -gneE51 -gneE50 gneE69 gneE65 -gneE68"/>
    </vehicle>
    <vehicle id="V38#1.0" depart="239.00">
        <route edges="-gneE127 gneE67 -gneE47 gneE78 gneE79 -gneE107 -gneE106 gneE53"/>
    </vehicle>
    <vehicle id="V49#1.0" depart="241.00">
        <route edges="-gneE50 -gneE49 -gneE48 -gneE47"/>
    </vehicle>
    <vehicle id="V59#1.0" depart="243.00">
        <route edges="-gneE67 gneE127 -gneE125 -gneE65 -gneE69 -gneE49 gneE68"/>
    </vehicle>
    <vehicle id="V95#1.0" depart="245.00">
        <route edges="-gneE125 -gneE68 -gneE59 -gneE107 -gneE106 -gneE52 gneE60"/>
    </vehicle>
    <vehicle id="V25#0.0" depart="246.00">
        <route edges="gneE48 -gneE59 -gneE79"/>
    </vehicle>
    <vehicle id="V25#1.0" depart="250.00">
        <route edges="gneE48 -gneE59 -gneE79"/>
    </vehicle>
    <vehicle id="V52#1.2" depart="250.00">
        <route edges="gneE68 -gneE65 -gneE64 -gneE63 gneE117 gneE119"/>
    </vehicle>
    <vehicle id="V81#1.0" depart="250.00">
        <route edges="gneE107 gneE57 gneE51 gneE52 gneE53 gneE46"/>
    </vehicle>
    <vehicle id="V53#0.0" depart="252.00">
        <route edges="gneE67 -gneE47 gneE78 gneE79 gneE59"/>
    </vehicle>
    <vehicle id="V73#1.0" depart="252.00">
        <route edges="-gneE70 -gneE49 -gneE59 -gneE107 -gneE106"/>
    </vehicle>
    <vehicle id="V84#2.0" depart="253.00">
        <route edges="-gneE64 -gneE63 -gneE70 -gneE49 gneE68 gneE125"/>
    </vehicle>
    <vehicle id="V12#3.0" depart="254.00">
        <route edges="-gneE71 -gneE50 gneE70 gneE63 gneE64"/>
    </vehicle>
    <vehicle id="V15#0.1" depart="254.00">
        <route edges="gneE61 -gneE119 -gneE117 -gneE70 -gneE49 -gneE59 gneE57"/>
    </vehicle>
    <vehicle id="V57#1.1" depart="254.00">
        <route edges="-gneE52 gneE60 gneE61 -gneE119"/>
    </vehicle>