<?xml version="1.0" encoding="UTF-8"?>
<!-- generated on 2020-11-12 16:29:24.996452 by runner.py v1_7_0+0000-714814baed
  options: 
-->
<routes xmlns:xsi="http://www.w3.org/2001/XMLSchema-instance" xsi:noNamespaceSchemaLocation="http://sumo.dlr.de/xsd/routes_file.xsd">
    <flow id="EV0" begin="0" end="10" period="193.0" from="gneE5" to="gneE10"/>
    <flow id="EV1" begin="0" end="10" period="193.0" from="gneE4" to="gneE6"/>
    <flow id="EV2" begin="0" end="10" period="193.0" from="gneE9" to="gneE4"/>
    <flow id="EV3" begin="0" end="10" period="193.0" from="gneE6" to="gneE0"/>
    <flow id="EV4" begin="0" end="10" period="193.0" from="gneE7" to="gneE10"/>
    <flow id="EV5" begin="0" end="10" period="193.0" from="gneE9" to="gneE5"/>
    <flow id="EV6" begin="0" end="10" period="193.0" from="gneE0" to="gneE5"/>
    <flow id="EV7" begin="0" end="10" period="193.0" from="gneE8" to="gneE4"/>
    <flow id="EV8" begin="0" end="10" period="193.0" from="gneE10" to="gneE9"/>
    <flow id="EV9" begin="0" end="10" period="193.0" from="gneE9" to="gneE6"/>
    <flow id="EV10" begin="0" end="10" period="193.0" from="gneE4" to="gneE0"/>
    <flow id="EV11" begin="0" end="10" period="193.0" from="gneE7" to="gneE7"/>
    <flow id="EV12" begin="0" end="10" period="193.0" from="gneE7" to="gneE9"/>
    <flow id="EV13" begin="0" end="10" period="193.0" from="gneE0" to="gneE6"/>
    <flow id="EV14" begin="0" end="10" period="193.0" from="gneE9" to="gneE0"/>
    <flow id="EV15" begin="0" end="10" period="193.0" from="gneE5" to="gneE8"/>
    <flow id="EV16" begin="0" end="10" period="193.0" from="gneE6" to="gneE7"/>
    <flow id="EV17" begin="0" end="10" period="193.0" from="gneE6" to="gneE7"/>
    <flow id="EV18" begin="0" end="10" period="193.0" from="gneE8" to="gneE5"/>
    <flow id="EV19" begin="0" end="10" period="193.0" from="gneE5" to="gneE8"/>
    <flow id="EV20" begin="0" end="10" period="193.0" from="gneE0" to="gneE6"/>
    <flow id="EV21" begin="0" end="10" period="193.0" from="gneE0" to="gneE7"/>
    <flow id="EV22" begin="0" end="10" period="193.0" from="gneE8" to="gneE10"/>
    <flow id="EV23" begin="0" end="10" period="193.0" from="gneE5" to="gneE7"/>
    <flow id="EV24" begin="0" end="10" period="193.0" from="gneE4" to="gneE0"/>
    <flow id="EV25" begin="0" end="10" period="193.0" from="gneE4" to="gneE7"/>
    <flow id="EV26" begin="0" end="10" period="193.0" from="gneE8" to="gneE9"/>
    <flow id="EV27" begin="0" end="10" period="193.0" from="gneE9" to="gneE8"/>
    <flow id="EV28" begin="0" end="10" period="193.0" from="gneE6" to="gneE8"/>
    <flow id="EV29" begin="0" end="10" period="193.0" from="gneE6" to="gneE6"/>
    <flow id="EV30" begin="0" end="10" period="193.0" from="gneE9" to="gneE7"/>
    <flow id="EV31" begin="0" end="10" period="193.0" from="gneE4" to="gneE4"/>
    <flow id="EV32" begin="0" end="10" period="193.0" from="gneE7" to="gneE4"/>
    <flow id="EV33" begin="0" end="10" period="193.0" from="gneE6" to="gneE10"/>
    <flow id="EV34" begin="0" end="10" period="193.0" from="gneE8" to="gneE10"/>
    <flow id="EV35" begin="0" end="10" period="193.0" from="gneE10" to="gneE7"/>
    <flow id="EV36" begin="0" end="10" period="193.0" from="gneE7" to="gneE8"/>
    <flow id="EV37" begin="0" end="10" period="193.0" from="gneE7" to="gneE7"/>
    <flow id="EV38" begin="0" end="10" period="193.0" from="gneE6" to="gneE6"/>
    <flow id="EV39" begin="0" end="10" period="193.0" from="gneE9" to="gneE10"/>
    <flow id="EV40" begin="0" end="10" period="193.0" from="gneE5" to="gneE4"/>
    <flow id="EV41" begin="0" end="10" period="193.0" from="gneE4" to="gneE4"/>
    <flow id="EV42" begin="0" end="10" period="193.0" from="gneE10" to="gneE8"/>
    <flow id="EV43" begin="0" end="10" period="193.0" from="gneE5" to="gneE7"/>
    <flow id="EV44" begin="0" end="10" period="193.0" from="gneE4" to="gneE7"/>
    <flow id="EV45" begin="0" end="10" period="193.0" from="gneE8" to="gneE0"/>
    <flow id="EV46" begin="0" end="10" period="193.0" from="gneE9" to="gneE10"/>
    <flow id="EV47" begin="0" end="10" period="193.0" from="gneE7" to="gneE7"/>
    <flow id="EV48" begin="0" end="10" period="193.0" from="gneE5" to="gneE10"/>
    <flow id="EV49" begin="0" end="10" period="193.0" from="gneE5" to="gneE5"/>
    <flow id="EV50" begin="0" end="10" period="193.0" from="gneE4" to="gneE10"/>
    <flow id="EV51" begin="0" end="10" period="193.0" from="gneE9" to="gneE8"/>
    <flow id="EV52" begin="0" end="10" period="193.0" from="gneE5" to="gneE0"/>
    <flow id="EV53" begin="0" end="10" period="193.0" from="gneE10" to="gneE4"/>
    <flow id="EV54" begin="0" end="10" period="193.0" from="gneE8" to="gneE6"/>
    <flow id="EV55" begin="0" end="10" period="193.0" from="gneE8" to="gneE10"/>
    <flow id="EV56" begin="0" end="10" period="193.0" from="gneE5" to="gneE5"/>
    <flow id="EV57" begin="0" end="10" period="193.0" from="gneE10" to="gneE9"/>
    <flow id="EV58" begin="0" end="10" period="193.0" from="gneE5" to="gneE4"/>
    <flow id="EV59" begin="0" end="10" period="193.0" from="gneE6" to="gneE5"/>
    <flow id="EV60" begin="0" end="10" period="193.0" from="gneE8" to="gneE6"/>
    <flow id="EV61" begin="0" end="10" period="193.0" from="gneE9" to="gneE5"/>
    <flow id="EV62" begin="0" end="10" period="193.0" from="gneE8" to="gneE10"/>
    <flow id="EV63" begin="0" end="10" period="193.0" from="gneE9" to="gneE7"/>
    <flow id="EV64" begin="0" end="10" period="193.0" from="gneE5" to="gneE0"/>
    <flow id="EV65" begin="0" end="10" period="193.0" from="gneE6" to="gneE7"/>
    <flow id="EV66" begin="0" end="10" period="193.0" from="gneE7" to="gneE4"/>
    <flow id="EV67" begin="0" end="10" period="193.0" from="gneE8" to="gneE0"/>
    <flow id="EV68" begin="0" end="10" period="193.0" from="gneE9" to="gneE4"/>
    <flow id="EV69" begin="0" end="10" period="193.0" from="gneE9" to="gneE10"/>
    <flow id="EV70" begin="0" end="10" period="193.0" from="gneE8" to="gneE5"/>
    <flow id="EV71" begin="0" end="10" period="193.0" from="gneE8" to="gneE4"/>
    <flow id="EV72" begin="0" end="10" period="193.0" from="gneE6" to="gneE10"/>
    <flow id="EV73" begin="0" end="10" period="193.0" from="gneE6" to="gneE4"/>
    <flow id="EV74" begin="0" end="10" period="193.0" from="gneE5" to="gneE6"/>
    <flow id="EV75" begin="0" end="10" period="193.0" from="gneE5" to="gneE0"/>
    <flow id="EV76" begin="0" end="10" period="193.0" from="gneE8" to="gneE5"/>
    <flow id="EV77" begin="0" end="10" period="193.0" from="gneE6" to="gneE0"/>
    <flow id="EV78" begin="0" end="10" period="193.0" from="gneE6" to="gneE4"/>
    <flow id="EV79" begin="0" end="10" period="193.0" from="gneE5" to="gneE5"/>
    <flow id="EV80" begin="0" end="10" period="193.0" from="gneE4" to="gneE0"/>
    <flow id="EV81" begin="0" end="10" period="193.0" from="gneE4" to="gneE0"/>
    <flow id="EV82" begin="0" end="10" period="193.0" from="gneE10" to="gneE4"/>
    <flow id="EV83" begin="0" end="10" period="193.0" from="gneE4" to="gneE6"/>
    <flow id="EV84" begin="0" end="10" period="193.0" from="gneE5" to="gneE10"/>
    <flow id="EV85" begin="0" end="10" period="193.0" from="gneE5" to="gneE10"/>
    <flow id="EV86" begin="0" end="10" period="193.0" from="gneE5" to="gneE6"/>
    <flow id="EV87" begin="0" end="10" period="193.0" from="gneE8" to="gneE6"/>
    <flow id="EV88" begin="0" end="10" period="193.0" from="gneE5" to="gneE5"/>
    <flow id="EV89" begin="0" end="10" period="193.0" from="gneE4" to="gneE4"/>
    <flow id="EV90" begin="0" end="10" period="193.0" from="gneE5" to="gneE0"/>
    <flow id="EV91" begin="0" end="10" period="193.0" from="gneE4" to="gneE7"/>
    <flow id="EV92" begin="0" end="10" period="193.0" from="gneE6" to="gneE5"/>
    <flow id="EV93" begin="0" end="10" period="193.0" from="gneE8" to="gneE10"/>
    <flow id="EV94" begin="0" end="10" period="193.0" from="gneE9" to="gneE6"/>
    <flow id="EV95" begin="0" end="10" period="193.0" from="gneE4" to="gneE10"/>
    <flow id="EV96" begin="0" end="10" period="193.0" from="gneE7" to="gneE4"/>
    <flow id="EV97" begin="0" end="10" period="193.0" from="gneE7" to="gneE10"/>
    <flow id="EV98" begin="0" end="10" period="193.0" from="gneE6" to="gneE4"/>
    <flow id="EV99" begin="0" end="10" period="193.0" from="gneE7" to="gneE4"/>
</routes>
