<?xml version="1.0" encoding="UTF-8"?>
<!-- generated on 2021-04-26 11:37:35.813047 by $Id$ v1_8_0+1742-ceeb7fe3f3
  options: <doubleminus>nogui <doubleminus>c 10 <doubleminus>noalg
-->
<routes xmlns:xsi="http://www.w3.org/2001/XMLSchema-instance" xsi:noNamespaceSchemaLocation="http://sumo.dlr.de/xsd/routes_file.xsd">
    <flow id="V0#0" begin="0" end="200" probability="0.0025" from="gneE70" to="gneE64"/>
    <flow id="V0#1" begin="0" end="200" probability="0.0025" from="gneE70" to="gneE64"/>
    <flow id="V0#2" begin="0" end="200" probability="0.0025" from="gneE70" to="gneE64"/>
    <flow id="V0#3" begin="0" end="200" probability="0.0025" from="gneE70" to="gneE64"/>
    <flow id="V1#0" begin="0" end="200" probability="0.0025" from="-gneE78" to="gneE57"/>
    <flow id="V1#1" begin="0" end="200" probability="0.0025" from="-gneE78" to="gneE57"/>
    <flow id="V1#2" begin="0" end="200" probability="0.0025" from="-gneE78" to="gneE57"/>
    <flow id="V1#3" begin="0" end="200" probability="0.0025" from="-gneE78" to="gneE57"/>
    <flow id="V2#0" begin="0" end="200" probability="0.0025" from="gneE119" to="gneE127"/>
    <flow id="V2#1" begin="0" end="200" probability="0.0025" from="gneE119" to="gneE127"/>
    <flow id="V2#2" begin="0" end="200" probability="0.0025" from="gneE119" to="gneE127"/>
    <flow id="V2#3" begin="0" end="200" probability="0.0025" from="gneE119" to="gneE127"/>
    <flow id="V3#0" begin="0" end="200" probability="0.0025" from="-gneE117" to="-gneE127"/>
    <flow id="V3#1" begin="0" end="200" probability="0.0025" from="-gneE117" to="-gneE127"/>
    <flow id="V3#2" begin="0" end="200" probability="0.0025" from="-gneE117" to="-gneE127"/>
    <flow id="V3#3" begin="0" end="200" probability="0.0025" from="-gneE117" to="-gneE127"/>
    <flow id="V4#0" begin="0" end="200" probability="0.0025" from="gneE53" to="gneE127"/>
    <flow id="V4#1" begin="0" end="200" probability="0.0025" from="gneE53" to="gneE127"/>
    <flow id="V4#2" begin="0" end="200" probability="0.0025" from="gneE53" to="gneE127"/>
    <flow id="V4#3" begin="0" end="200" probability="0.0025" from="gneE53" to="gneE127"/>
    <flow id="V5#0" begin="0" end="200" probability="0.0025" from="-gneE61" to="-gneE52"/>
    <flow id="V5#1" begin="0" end="200" probability="0.0025" from="-gneE61" to="-gneE52"/>
    <flow id="V5#2" begin="0" end="200" probability="0.0025" from="-gneE61" to="-gneE52"/>
    <flow id="V5#3" begin="0" end="200" probability="0.0025" from="-gneE61" to="-gneE52"/>
    <flow id="V6#0" begin="0" end="200" probability="0.0025" from="-gneE64" to="-gneE127"/>
    <flow id="V6#1" begin="0" end="200" probability="0.0025" from="-gneE64" to="-gneE127"/>
    <flow id="V6#2" begin="0" end="200" probability="0.0025" from="-gneE64" to="-gneE127"/>
    <flow id="V6#3" begin="0" end="200" probability="0.0025" from="-gneE64" to="-gneE127"/>
    <flow id="V7#0" begin="0" end="200" probability="0.0025" from="gneE52" to="-gneE59"/>
    <flow id="V7#1" begin="0" end="200" probability="0.0025" from="gneE52" to="-gneE59"/>
    <flow id="V7#2" begin="0" end="200" probability="0.0025" from="gneE52" to="-gneE59"/>
    <flow id="V7#3" begin="0" end="200" probability="0.0025" from="gneE52" to="-gneE59"/>
    <flow id="V8#0" begin="0" end="200" probability="0.0025" from="-gneE50" to="gneE68"/>
    <flow id="V8#1" begin="0" end="200" probability="0.0025" from="-gneE50" to="gneE68"/>
    <flow id="V8#2" begin="0" end="200" probability="0.0025" from="-gneE50" to="gneE68"/>
    <flow id="V8#3" begin="0" end="200" probability="0.0025" from="-gneE50" to="gneE68"/>
    <flow id="V9#0" begin="0" end="200" probability="0.0025" from="gneE67" to="gneE64"/>
    <flow id="V9#1" begin="0" end="200" probability="0.0025" from="gneE67" to="gneE64"/>
    <flow id="V9#2" begin="0" end="200" probability="0.0025" from="gneE67" to="gneE64"/>
    <flow id="V9#3" begin="0" end="200" probability="0.0025" from="gneE67" to="gneE64"/>
    <flow id="V10#0" begin="0" end="200" probability="0.0025" from="-gneE47" to="gneE127"/>
    <flow id="V10#1" begin="0" end="200" probability="0.0025" from="-gneE47" to="gneE127"/>
    <flow id="V10#2" begin="0" end="200" probability="0.0025" from="-gneE47" to="gneE127"/>
    <flow id="V10#3" begin="0" end="200" probability="0.0025" from="-gneE47" to="gneE127"/>
    <flow id="V11#0" begin="0" end="200" probability="0.0025" from="gneE63" to="gneE117"/>
    <flow id="V11#1" begin="0" end="200" probability="0.0025" from="gneE63" to="gneE117"/>
    <flow id="V11#2" begin="0" end="200" probability="0.0025" from="gneE63" to="gneE117"/>
    <flow id="V11#3" begin="0" end="200" probability="0.0025" from="gneE63" to="gneE117"/>
    <flow id="V12#0" begin="0" end="200" probability="0.0025" from="gneE119" to="-gneE48"/>
    <flow id="V12#1" begin="0" end="200" probability="0.0025" from="gneE119" to="-gneE48"/>
    <flow id="V12#2" begin="0" end="200" probability="0.0025" from="gneE119" to="-gneE48"/>
    <flow id="V12#3" begin="0" end="200" probability="0.0025" from="gneE119" to="-gneE48"/>
    <flow id="V13#0" begin="0" end="200" probability="0.0025" from="gneE61" to="gneE61"/>
    <flow id="V13#1" begin="0" end="200" probability="0.0025" from="gneE61" to="gneE61"/>
    <flow id="V13#2" begin="0" end="200" probability="0.0025" from="gneE61" to="gneE61"/>
    <flow id="V13#3" begin="0" end="200" probability="0.0025" from="gneE61" to="gneE61"/>
    <flow id="V14#0" begin="0" end="200" probability="0.0025" from="gneE107" to="gneE68"/>
    <flow id="V14#1" begin="0" end="200" probability="0.0025" from="gneE107" to="gneE68"/>
    <flow id="V14#2" begin="0" end="200" probability="0.0025" from="gneE107" to="gneE68"/>
    <flow id="V14#3" begin="0" end="200" probability="0.0025" from="gneE107" to="gneE68"/>
    <flow id="V15#0" begin="0" end="200" probability="0.0025" from="gneE67" to="gneE50"/>
    <flow id="V15#1" begin="0" end="200" probability="0.0025" from="gneE67" to="gneE50"/>
    <flow id="V15#2" begin="0" end="200" probability="0.0025" from="gneE67" to="gneE50"/>
    <flow id="V15#3" begin="0" end="200" probability="0.0025" from="gneE67" to="gneE50"/>
    <flow id="V16#0" begin="0" end="200" probability="0.0025" from="gneE47" to="-gneE119"/>
    <flow id="V16#1" begin="0" end="200" probability="0.0025" from="gneE47" to="-gneE119"/>
    <flow id="V16#2" begin="0" end="200" probability="0.0025" from="gneE47" to="-gneE119"/>
    <flow id="V16#3" begin="0" end="200" probability="0.0025" from="gneE47" to="-gneE119"/>
    <flow id="V17#0" begin="0" end="200" probability="0.0025" from="gneE53" to="-gneE64"/>
    <flow id="V17#1" begin="0" end="200" probability="0.0025" from="gneE53" to="-gneE64"/>
    <flow id="V17#2" begin="0" end="200" probability="0.0025" from="gneE53" to="-gneE64"/>
    <flow id="V17#3" begin="0" end="200" probability="0.0025" from="gneE53" to="-gneE64"/>
    <flow id="V18#0" begin="0" end="200" probability="0.0025" from="-gneE107" to="-gneE59"/>
    <flow id="V18#1" begin="0" end="200" probability="0.0025" from="-gneE107" to="-gneE59"/>
    <flow id="V18#2" begin="0" end="200" probability="0.0025" from="-gneE107" to="-gneE59"/>
    <flow id="V18#3" begin="0" end="200" probability="0.0025" from="-gneE107" to="-gneE59"/>
    <flow id="V19#0" begin="0" end="200" probability="0.0025" from="-gneE71" to="-gneE71"/>
    <flow id="V19#1" begin="0" end="200" probability="0.0025" from="-gneE71" to="-gneE71"/>
    <flow id="V19#2" begin="0" end="200" probability="0.0025" from="-gneE71" to="-gneE71"/>
    <flow id="V19#3" begin="0" end="200" probability="0.0025" from="-gneE71" to="-gneE71"/>
    <flow id="V20#0" begin="0" end="200" probability="0.0025" from="gneE117" to="gneE78"/>
    <flow id="V20#1" begin="0" end="200" probability="0.0025" from="gneE117" to="gneE78"/>
    <flow id="V20#2" begin="0" end="200" probability="0.0025" from="gneE117" to="gneE78"/>
    <flow id="V20#3" begin="0" end="200" probability="0.0025" from="gneE117" to="gneE78"/>
    <flow id="V21#0" begin="0" end="200" probability="0.0025" from="-gneE117" to="gneE59"/>
    <flow id="V21#1" begin="0" end="200" probability="0.0025" from="-gneE117" to="gneE59"/>
    <flow id="V21#2" begin="0" end="200" probability="0.0025" from="-gneE117" to="gneE59"/>
    <flow id="V21#3" begin="0" end="200" probability="0.0025" from="-gneE117" to="gneE59"/>
    <flow id="V22#0" begin="0" end="200" probability="0.0025" from="-gneE106" to="-gneE69"/>
    <flow id="V22#1" begin="0" end="200" probability="0.0025" from="-gneE106" to="-gneE69"/>
    <flow id="V22#2" begin="0" end="200" probability="0.0025" from="-gneE106" to="-gneE69"/>
    <flow id="V22#3" begin="0" end="200" probability="0.0025" from="-gneE106" to="-gneE69"/>
    <flow id="V23#0" begin="0" end="200" probability="0.0025" from="-gneE79" to="-gneE59"/>
    <flow id="V23#1" begin="0" end="200" probability="0.0025" from="-gneE79" to="-gneE59"/>
    <flow id="V23#2" begin="0" end="200" probability="0.0025" from="-gneE79" to="-gneE59"/>
    <flow id="V23#3" begin="0" end="200" probability="0.0025" from="-gneE79" to="-gneE59"/>
    <flow id="V24#0" begin="0" end="200" probability="0.0025" from="-gneE53" to="-gneE53"/>
    <flow id="V24#1" begin="0" end="200" probability="0.0025" from="-gneE53" to="-gneE53"/>
    <flow id="V24#2" begin="0" end="200" probability="0.0025" from="-gneE53" to="-gneE53"/>
    <flow id="V24#3" begin="0" end="200" probability="0.0025" from="-gneE53" to="-gneE53"/>
    <flow id="V25#0" begin="0" end="200" probability="0.0025" from="-gneE59" to="-gneE119"/>
    <flow id="V25#1" begin="0" end="200" probability="0.0025" from="-gneE59" to="-gneE119"/>
    <flow id="V25#2" begin="0" end="200" probability="0.0025" from="-gneE59" to="-gneE119"/>
    <flow id="V25#3" begin="0" end="200" probability="0.0025" from="-gneE59" to="-gneE119"/>
    <flow id="V26#0" begin="0" end="200" probability="0.0025" from="gneE69" to="-gneE50"/>
    <flow id="V26#1" begin="0" end="200" probability="0.0025" from="gneE69" to="-gneE50"/>
    <flow id="V26#2" begin="0" end="200" probability="0.0025" from="gneE69" to="-gneE50"/>
    <flow id="V26#3" begin="0" end="200" probability="0.0025" from="gneE69" to="-gneE50"/>
    <flow id="V27#0" begin="0" end="200" probability="0.0025" from="-gneE61" to="gneE106"/>
    <flow id="V27#1" begin="0" end="200" probability="0.0025" from="-gneE61" to="gneE106"/>
    <flow id="V27#2" begin="0" end="200" probability="0.0025" from="-gneE61" to="gneE106"/>
    <flow id="V27#3" begin="0" end="200" probability="0.0025" from="-gneE61" to="gneE106"/>
    <flow id="V28#0" begin="0" end="200" probability="0.0025" from="-gneE117" to="-gneE125"/>
    <flow id="V28#1" begin="0" end="200" probability="0.0025" from="-gneE117" to="-gneE125"/>
    <flow id="V28#2" begin="0" end="200" probability="0.0025" from="-gneE117" to="-gneE125"/>
    <flow id="V28#3" begin="0" end="200" probability="0.0025" from="-gneE117" to="-gneE125"/>
    <flow id="V29#0" begin="0" end="200" probability="0.0025" from="gneE64" to="-gneE61"/>
    <flow id="V29#1" begin="0" end="200" probability="0.0025" from="gneE64" to="-gneE61"/>
    <flow id="V29#2" begin="0" end="200" probability="0.0025" from="gneE64" to="-gneE61"/>
    <flow id="V29#3" begin="0" end="200" probability="0.0025" from="gneE64" to="-gneE61"/>
    <flow id="V30#0" begin="0" end="200" probability="0.0025" from="gneE68" to="gneE51"/>
    <flow id="V30#1" begin="0" end="200" probability="0.0025" from="gneE68" to="gneE51"/>
    <flow id="V30#2" begin="0" end="200" probability="0.0025" from="gneE68" to="gneE51"/>
    <flow id="V30#3" begin="0" end="200" probability="0.0025" from="gneE68" to="gneE51"/>
    <flow id="V31#0" begin="0" end="200" probability="0.0025" from="-gneE125" to="-gneE52"/>
    <flow id="V31#1" begin="0" end="200" probability="0.0025" from="-gneE125" to="-gneE52"/>
    <flow id="V31#2" begin="0" end="200" probability="0.0025" from="-gneE125" to="-gneE52"/>
    <flow id="V31#3" begin="0" end="200" probability="0.0025" from="-gneE125" to="-gneE52"/>
    <flow id="V32#0" begin="0" end="200" probability="0.0025" from="gneE50" to="gneE69"/>
    <flow id="V32#1" begin="0" end="200" probability="0.0025" from="gneE50" to="gneE69"/>
    <flow id="V32#2" begin="0" end="200" probability="0.0025" from="gneE50" to="gneE69"/>
    <flow id="V32#3" begin="0" end="200" probability="0.0025" from="gneE50" to="gneE69"/>
    <flow id="V33#0" begin="0" end="200" probability="0.0025" from="gneE53" to="gneE47"/>
    <flow id="V33#1" begin="0" end="200" probability="0.0025" from="gneE53" to="gneE47"/>
    <flow id="V33#2" begin="0" end="200" probability="0.0025" from="gneE53" to="gneE47"/>
    <flow id="V33#3" begin="0" end="200" probability="0.0025" from="gneE53" to="gneE47"/>
    <flow id="V34#0" begin="0" end="200" probability="0.0025" from="-gneE59" to="gneE48"/>
    <flow id="V34#1" begin="0" end="200" probability="0.0025" from="-gneE59" to="gneE48"/>
    <flow id="V34#2" begin="0" end="200" probability="0.0025" from="-gneE59" to="gneE48"/>
    <flow id="V34#3" begin="0" end="200" probability="0.0025" from="-gneE59" to="gneE48"/>
    <flow id="V35#0" begin="0" end="200" probability="0.0025" from="-gneE57" to="-gneE47"/>
    <flow id="V35#1" begin="0" end="200" probability="0.0025" from="-gneE57" to="-gneE47"/>
    <flow id="V35#2" begin="0" end="200" probability="0.0025" from="-gneE57" to="-gneE47"/>
    <flow id="V35#3" begin="0" end="200" probability="0.0025" from="-gneE57" to="-gneE47"/>
    <flow id="V36#0" begin="0" end="200" probability="0.0025" from="-gneE53" to="gneE59"/>
    <flow id="V36#1" begin="0" end="200" probability="0.0025" from="-gneE53" to="gneE59"/>
    <flow id="V36#2" begin="0" end="200" probability="0.0025" from="-gneE53" to="gneE59"/>
    <flow id="V36#3" begin="0" end="200" probability="0.0025" from="-gneE53" to="gneE59"/>
    <flow id="V37#0" begin="0" end="200" probability="0.0025" from="gneE78" to="gneE65"/>
    <flow id="V37#1" begin="0" end="200" probability="0.0025" from="gneE78" to="gneE65"/>
    <flow id="V37#2" begin="0" end="200" probability="0.0025" from="gneE78" to="gneE65"/>
    <flow id="V37#3" begin="0" end="200" probability="0.0025" from="gneE78" to="gneE65"/>
    <flow id="V38#0" begin="0" end="200" probability="0.0025" from="-gneE106" to="gneE67"/>
    <flow id="V38#1" begin="0" end="200" probability="0.0025" from="-gneE106" to="gneE67"/>
    <flow id="V38#2" begin="0" end="200" probability="0.0025" from="-gneE106" to="gneE67"/>
    <flow id="V38#3" begin="0" end="200" probability="0.0025" from="-gneE106" to="gneE67"/>
    <flow id="V39#0" begin="0" end="200" probability="0.0025" from="gneE51" to="gneE64"/>
    <flow id="V39#1" begin="0" end="200" probability="0.0025" from="gneE51" to="gneE64"/>
    <flow id="V39#2" begin="0" end="200" probability="0.0025" from="gneE51" to="gneE64"/>
    <flow id="V39#3" begin="0" end="200" probability="0.0025" from="gneE51" to="gneE64"/>
    <flow id="V40#0" begin="0" end="200" probability="0.0025" from="-gneE127" to="gneE127"/>
    <flow id="V40#1" begin="0" end="200" probability="0.0025" from="-gneE127" to="gneE127"/>
    <flow id="V40#2" begin="0" end="200" probability="0.0025" from="-gneE127" to="gneE127"/>
    <flow id="V40#3" begin="0" end="200" probability="0.0025" from="-gneE127" to="gneE127"/>
    <flow id="V41#0" begin="0" end="200" probability="0.0025" from="-gneE127" to="-gneE60"/>
    <flow id="V41#1" begin="0" end="200" probability="0.0025" from="-gneE127" to="-gneE60"/>
    <flow id="V41#2" begin="0" end="200" probability="0.0025" from="-gneE127" to="-gneE60"/>
    <flow id="V41#3" begin="0" end="200" probability="0.0025" from="-gneE127" to="-gneE60"/>
    <flow id="V42#0" begin="0" end="200" probability="0.0025" from="gneE60" to="gneE59"/>
    <flow id="V42#1" begin="0" end="200" probability="0.0025" from="gneE60" to="gneE59"/>
    <flow id="V42#2" begin="0" end="200" probability="0.0025" from="gneE60" to="gneE59"/>
    <flow id="V42#3" begin="0" end="200" probability="0.0025" from="gneE60" to="gneE59"/>
    <flow id="V43#0" begin="0" end="200" probability="0.0025" from="gneE67" to="-gneE48"/>
    <flow id="V43#1" begin="0" end="200" probability="0.0025" from="gneE67" to="-gneE48"/>
    <flow id="V43#2" begin="0" end="200" probability="0.0025" from="gneE67" to="-gneE48"/>
    <flow id="V43#3" begin="0" end="200" probability="0.0025" from="gneE67" to="-gneE48"/>
    <flow id="V44#0" begin="0" end="200" probability="0.0025" from="gneE51" to="gneE57"/>
    <flow id="V44#1" begin="0" end="200" probability="0.0025" from="gneE51" to="gneE57"/>
    <flow id="V44#2" begin="0" end="200" probability="0.0025" from="gneE51" to="gneE57"/>
    <flow id="V44#3" begin="0" end="200" probability="0.0025" from="gneE51" to="gneE57"/>
    <flow id="V45#0" begin="0" end="200" probability="0.0025" from="-gneE46" to="gneE48"/>
    <flow id="V45#1" begin="0" end="200" probability="0.0025" from="-gneE46" to="gneE48"/>
    <flow id="V45#2" begin="0" end="200" probability="0.0025" from="-gneE46" to="gneE48"/>
    <flow id="V45#3" begin="0" end="200" probability="0.0025" from="-gneE46" to="gneE48"/>
    <flow id="V46#0" begin="0" end="200" probability="0.0025" from="-gneE70" to="gneE61"/>
    <flow id="V46#1" begin="0" end="200" probability="0.0025" from="-gneE70" to="gneE61"/>
    <flow id="V46#2" begin="0" end="200" probability="0.0025" from="-gneE70" to="gneE61"/>
    <flow id="V46#3" begin="0" end="200" probability="0.0025" from="-gneE70" to="gneE61"/>
    <flow id="V47#0" begin="0" end="200" probability="0.0025" from="-gneE78" to="gneE71"/>
    <flow id="V47#1" begin="0" end="200" probability="0.0025" from="-gneE78" to="gneE71"/>
    <flow id="V47#2" begin="0" end="200" probability="0.0025" from="-gneE78" to="gneE71"/>
    <flow id="V47#3" begin="0" end="200" probability="0.0025" from="-gneE78" to="gneE71"/>
    <flow id="V48#0" begin="0" end="200" probability="0.0025" from="gneE78" to="gneE64"/>
    <flow id="V48#1" begin="0" end="200" probability="0.0025" from="gneE78" to="gneE64"/>
    <flow id="V48#2" begin="0" end="200" probability="0.0025" from="gneE78" to="gneE64"/>
    <flow id="V48#3" begin="0" end="200" probability="0.0025" from="gneE78" to="gneE64"/>
    <flow id="V49#0" begin="0" end="200" probability="0.0025" from="-gneE79" to="gneE69"/>
    <flow id="V49#1" begin="0" end="200" probability="0.0025" from="-gneE79" to="gneE69"/>
    <flow id="V49#2" begin="0" end="200" probability="0.0025" from="-gneE79" to="gneE69"/>
    <flow id="V49#3" begin="0" end="200" probability="0.0025" from="-gneE79" to="gneE69"/>
    <flow id="V50#0" begin="0" end="200" probability="0.0025" from="gneE125" to="-gneE69"/>
    <flow id="V50#1" begin="0" end="200" probability="0.0025" from="gneE125" to="-gneE69"/>
    <flow id="V50#2" begin="0" end="200" probability="0.0025" from="gneE125" to="-gneE69"/>
    <flow id="V50#3" begin="0" end="200" probability="0.0025" from="gneE125" to="-gneE69"/>
    <flow id="V51#0" begin="0" end="200" probability="0.0025" from="-gneE79" to="-gneE52"/>
    <flow id="V51#1" begin="0" end="200" probability="0.0025" from="-gneE79" to="-gneE52"/>
    <flow id="V51#2" begin="0" end="200" probability="0.0025" from="-gneE79" to="-gneE52"/>
    <flow id="V51#3" begin="0" end="200" probability="0.0025" from="-gneE79" to="-gneE52"/>
    <flow id="V52#0" begin="0" end="200" probability="0.0025" from="-gneE70" to="-gneE51"/>
    <flow id="V52#1" begin="0" end="200" probability="0.0025" from="-gneE70" to="-gneE51"/>
    <flow id="V52#2" begin="0" end="200" probability="0.0025" from="-gneE70" to="-gneE51"/>
    <flow id="V52#3" begin="0" end="200" probability="0.0025" from="-gneE70" to="-gneE51"/>
    <flow id="V53#0" begin="0" end="200" probability="0.0025" from="gneE50" to="-gneE60"/>
    <flow id="V53#1" begin="0" end="200" probability="0.0025" from="gneE50" to="-gneE60"/>
    <flow id="V53#2" begin="0" end="200" probability="0.0025" from="gneE50" to="-gneE60"/>
    <flow id="V53#3" begin="0" end="200" probability="0.0025" from="gneE50" to="-gneE60"/>
    <flow id="V54#0" begin="0" end="200" probability="0.0025" from="gneE46" to="gneE117"/>
    <flow id="V54#1" begin="0" end="200" probability="0.0025" from="gneE46" to="gneE117"/>
    <flow id="V54#2" begin="0" end="200" probability="0.0025" from="gneE46" to="gneE117"/>
    <flow id="V54#3" begin="0" end="200" probability="0.0025" from="gneE46" to="gneE117"/>
    <flow id="V55#0" begin="0" end="200" probability="0.0025" from="gneE59" to="-gneE107"/>
    <flow id="V55#1" begin="0" end="200" probability="0.0025" from="gneE59" to="-gneE107"/>
    <flow id="V55#2" begin="0" end="200" probability="0.0025" from="gneE59" to="-gneE107"/>
    <flow id="V55#3" begin="0" end="200" probability="0.0025" from="gneE59" to="-gneE107"/>
    <flow id="V56#0" begin="0" end="200" probability="0.0025" from="gneE65" to="-gneE127"/>
    <flow id="V56#1" begin="0" end="200" probability="0.0025" from="gneE65" to="-gneE127"/>
    <flow id="V56#2" begin="0" end="200" probability="0.0025" from="gneE65" to="-gneE127"/>
    <flow id="V56#3" begin="0" end="200" probability="0.0025" from="gneE65" to="-gneE127"/>
    <flow id="V57#0" begin="0" end="200" probability="0.0025" from="-gneE107" to="gneE63"/>
    <flow id="V57#1" begin="0" end="200" probability="0.0025" from="-gneE107" to="gneE63"/>
    <flow id="V57#2" begin="0" end="200" probability="0.0025" from="-gneE107" to="gneE63"/>
    <flow id="V57#3" begin="0" end="200" probability="0.0025" from="-gneE107" to="gneE63"/>
    <flow id="V58#0" begin="0" end="200" probability="0.0025" from="gneE46" to="gneE53"/>
    <flow id="V58#1" begin="0" end="200" probability="0.0025" from="gneE46" to="gneE53"/>
    <flow id="V58#2" begin="0" end="200" probability="0.0025" from="gneE46" to="gneE53"/>
    <flow id="V58#3" begin="0" end="200" probability="0.0025" from="gneE46" to="gneE53"/>
    <flow id="V59#0" begin="0" end="200" probability="0.0025" from="gneE125" to="-gneE48"/>
    <flow id="V59#1" begin="0" end="200" probability="0.0025" from="gneE125" to="-gneE48"/>
    <flow id="V59#2" begin="0" end="200" probability="0.0025" from="gneE125" to="-gneE48"/>
    <flow id="V59#3" begin="0" end="200" probability="0.0025" from="gneE125" to="-gneE48"/>
    <flow id="V60#0" begin="0" end="200" probability="0.0025" from="-gneE106" to="-gneE127"/>
    <flow id="V60#1" begin="0" end="200" probability="0.0025" from="-gneE106" to="-gneE127"/>
    <flow id="V60#2" begin="0" end="200" probability="0.0025" from="-gneE106" to="-gneE127"/>
    <flow id="V60#3" begin="0" end="200" probability="0.0025" from="-gneE106" to="-gneE127"/>
    <flow id="V61#0" begin="0" end="200" probability="0.0025" from="-gneE61" to="-gneE67"/>
    <flow id="V61#1" begin="0" end="200" probability="0.0025" from="-gneE61" to="-gneE67"/>
    <flow id="V61#2" begin="0" end="200" probability="0.0025" from="-gneE61" to="-gneE67"/>
    <flow id="V61#3" begin="0" end="200" probability="0.0025" from="-gneE61" to="-gneE67"/>
    <flow id="V62#0" begin="0" end="200" probability="0.0025" from="gneE50" to="-gneE68"/>
    <flow id="V62#1" begin="0" end="200" probability="0.0025" from="gneE50" to="-gneE68"/>
    <flow id="V62#2" begin="0" end="200" probability="0.0025" from="gneE50" to="-gneE68"/>
    <flow id="V62#3" begin="0" end="200" probability="0.0025" from="gneE50" to="-gneE68"/>
    <flow id="V63#0" begin="0" end="200" probability="0.0025" from="gneE47" to="-gneE127"/>
    <flow id="V63#1" begin="0" end="200" probability="0.0025" from="gneE47" to="-gneE127"/>
    <flow id="V63#2" begin="0" end="200" probability="0.0025" from="gneE47" to="-gneE127"/>
    <flow id="V63#3" begin="0" end="200" probability="0.0025" from="gneE47" to="-gneE127"/>
    <flow id="V64#0" begin="0" end="200" probability="0.0025" from="gneE48" to="-gneE60"/>
    <flow id="V64#1" begin="0" end="200" probability="0.0025" from="gneE48" to="-gneE60"/>
    <flow id="V64#2" begin="0" end="200" probability="0.0025" from="gneE48" to="-gneE60"/>
    <flow id="V64#3" begin="0" end="200" probability="0.0025" from="gneE48" to="-gneE60"/>
    <flow id="V65#0" begin="0" end="200" probability="0.0025" from="-gneE60" to="-gneE63"/>
    <flow id="V65#1" begin="0" end="200" probability="0.0025" from="-gneE60" to="-gneE63"/>
    <flow id="V65#2" begin="0" end="200" probability="0.0025" from="-gneE60" to="-gneE63"/>
    <flow id="V65#3" begin="0" end="200" probability="0.0025" from="-gneE60" to="-gneE63"/>
    <flow id="V66#0" begin="0" end="200" probability="0.0025" from="gneE125" to="gneE78"/>
    <flow id="V66#1" begin="0" end="200" probability="0.0025" from="gneE125" to="gneE78"/>
    <flow id="V66#2" begin="0" end="200" probability="0.0025" from="gneE125" to="gneE78"/>
    <flow id="V66#3" begin="0" end="200" probability="0.0025" from="gneE125" to="gneE78"/>
    <flow id="V67#0" begin="0" end="200" probability="0.0025" from="gneE119" to="-gneE51"/>
    <flow id="V67#1" begin="0" end="200" probability="0.0025" from="gneE119" to="-gneE51"/>
    <flow id="V67#2" begin="0" end="200" probability="0.0025" from="gneE119" to="-gneE51"/>
    <flow id="V67#3" begin="0" end="200" probability="0.0025" from="gneE119" to="-gneE51"/>
    <flow id="V68#0" begin="0" end="200" probability="0.0025" from="gneE69" to="-gneE78"/>
    <flow id="V68#1" begin="0" end="200" probability="0.0025" from="gneE69" to="-gneE78"/>
    <flow id="V68#2" begin="0" end="200" probability="0.0025" from="gneE69" to="-gneE78"/>
    <flow id="V68#3" begin="0" end="200" probability="0.0025" from="gneE69" to="-gneE78"/>
    <flow id="V69#0" begin="0" end="200" probability="0.0025" from="gneE47" to="-gneE117"/>
    <flow id="V69#1" begin="0" end="200" probability="0.0025" from="gneE47" to="-gneE117"/>
    <flow id="V69#2" begin="0" end="200" probability="0.0025" from="gneE47" to="-gneE117"/>
    <flow id="V69#3" begin="0" end="200" probability="0.0025" from="gneE47" to="-gneE117"/>
    <flow id="V70#0" begin="0" end="200" probability="0.0025" from="gneE53" to="gneE107"/>
    <flow id="V70#1" begin="0" end="200" probability="0.0025" from="gneE53" to="gneE107"/>
    <flow id="V70#2" begin="0" end="200" probability="0.0025" from="gneE53" to="gneE107"/>
    <flow id="V70#3" begin="0" end="200" probability="0.0025" from="gneE53" to="gneE107"/>
    <flow id="V71#0" begin="0" end="200" probability="0.0025" from="gneE68" to="-gneE119"/>
    <flow id="V71#1" begin="0" end="200" probability="0.0025" from="gneE68" to="-gneE119"/>
    <flow id="V71#2" begin="0" end="200" probability="0.0025" from="gneE68" to="-gneE119"/>
    <flow id="V71#3" begin="0" end="200" probability="0.0025" from="gneE68" to="-gneE119"/>
    <flow id="V72#0" begin="0" end="200" probability="0.0025" from="-gneE60" to="gneE64"/>
    <flow id="V72#1" begin="0" end="200" probability="0.0025" from="-gneE60" to="gneE64"/>
    <flow id="V72#2" begin="0" end="200" probability="0.0025" from="-gneE60" to="gneE64"/>
    <flow id="V72#3" begin="0" end="200" probability="0.0025" from="-gneE60" to="gneE64"/>
    <flow id="V73#0" begin="0" end="200" probability="0.0025" from="gneE64" to="gneE106"/>
    <flow id="V73#1" begin="0" end="200" probability="0.0025" from="gneE64" to="gneE106"/>
    <flow id="V73#2" begin="0" end="200" probability="0.0025" from="gneE64" to="gneE106"/>
    <flow id="V73#3" begin="0" end="200" probability="0.0025" from="gneE64" to="gneE106"/>
    <flow id="V74#0" begin="0" end="200" probability="0.0025" from="gneE71" to="gneE125"/>
    <flow id="V74#1" begin="0" end="200" probability="0.0025" from="gneE71" to="gneE125"/>
    <flow id="V74#2" begin="0" end="200" probability="0.0025" from="gneE71" to="gneE125"/>
    <flow id="V74#3" begin="0" end="200" probability="0.0025" from="gneE71" to="gneE125"/>
    <flow id="V75#0" begin="0" end="200" probability="0.0025" from="gneE67" to="gneE57"/>
    <flow id="V75#1" begin="0" end="200" probability="0.0025" from="gneE67" to="gneE57"/>
    <flow id="V75#2" begin="0" end="200" probability="0.0025" from="gneE67" to="gneE57"/>
    <flow id="V75#3" begin="0" end="200" probability="0.0025" from="gneE67" to="gneE57"/>
    <flow id="V76#0" begin="0" end="200" probability="0.0025" from="gneE50" to="gneE119"/>
    <flow id="V76#1" begin="0" end="200" probability="0.0025" from="gneE50" to="gneE119"/>
    <flow id="V76#2" begin="0" end="200" probability="0.0025" from="gneE50" to="gneE119"/>
    <flow id="V76#3" begin="0" end="200" probability="0.0025" from="gneE50" to="gneE119"/>
    <flow id="V77#0" begin="0" end="200" probability="0.0025" from="gneE50" to="-gneE48"/>
    <flow id="V77#1" begin="0" end="200" probability="0.0025" from="gneE50" to="-gneE48"/>
    <flow id="V77#2" begin="0" end="200" probability="0.0025" from="gneE50" to="-gneE48"/>
    <flow id="V77#3" begin="0" end="200" probability="0.0025" from="gneE50" to="-gneE48"/>
    <flow id="V78#0" begin="0" end="200" probability="0.0025" from="-gneE64" to="-gneE70"/>
    <flow id="V78#1" begin="0" end="200" probability="0.0025" from="-gneE64" to="-gneE70"/>
    <flow id="V78#2" begin="0" end="200" probability="0.0025" from="-gneE64" to="-gneE70"/>
    <flow id="V78#3" begin="0" end="200" probability="0.0025" from="-gneE64" to="-gneE70"/>
    <flow id="V79#0" begin="0" end="200" probability="0.0025" from="-gneE49" to="-gneE57"/>
    <flow id="V79#1" begin="0" end="200" probability="0.0025" from="-gneE49" to="-gneE57"/>
    <flow id="V79#2" begin="0" end="200" probability="0.0025" from="-gneE49" to="-gneE57"/>
    <flow id="V79#3" begin="0" end="200" probability="0.0025" from="-gneE49" to="-gneE57"/>
    <flow id="V80#0" begin="0" end="200" probability="0.0025" from="gneE79" to="-gneE50"/>