<?xml version="1.0" encoding="UTF-8"?>
<!-- generated on 2021-03-10 17:02:09.309851 by runner.py v1_7_0+0000-714814baed
  options: 
-->
<routes xmlns:xsi="http://www.w3.org/2001/XMLSchema-instance" xsi:noNamespaceSchemaLocation="http://sumo.dlr.de/xsd/routes_file.xsd">
    <flow id="V0" begin="0" end="10" period="193.0" from="-gneE53" to="-gneE65"/>
    <flow id="V1" begin="0" end="10" period="193.0" from="gneE85" to="gneE66"/>
    <flow id="V2" begin="0" end="10" period="193.0" from="gneE71" to="gneE79"/>
    <flow id="V3" begin="0" end="10" period="193.0" from="-gneE70" to="-gneE52"/>
    <flow id="V4" begin="0" end="10" period="193.0" from="-gneE48" to="gneE59"/>
    <flow id="V5" begin="0" end="10" period="193.0" from="-gneE66" to="-gneE79"/>
    <flow id="V6" begin="0" end="10" period="193.0" from="-gneE52" to="gneE54"/>
    <flow id="V7" begin="0" end="10" period="193.0" from="-gneE71" to="gneE66"/>
    <flow id="V8" begin="0" end="10" period="193.0" from="gneE68" to="gneE71"/>
    <flow id="V9" begin="0" end="10" period="193.0" from="gneE78" to="-gneE52"/>
    <flow id="V10" begin="0" end="10" period="193.0" from="-gneE71" to="-gneE53"/>
    <flow id="V11" begin="0" end="10" period="193.0" from="gneE54" to="-gneE61"/>
    <flow id="V12" begin="0" end="10" period="193.0" from="gneE60" to="-gneE51"/>
    <flow id="V13" begin="0" end="10" period="193.0" from="-gneE68" to="-gneE49"/>
    <flow id="V14" begin="0" end="10" period="193.0" from="gneE69" to="gneE85"/>
    <flow id="V15" begin="0" end="10" period="193.0" from="-gneE68" to="-gneE53"/>
    <flow id="V16" begin="0" end="10" period="193.0" from="gneE71" to="gneE47"/>
    <flow id="V17" begin="0" end="10" period="193.0" from="-gneE78" to="gneE57"/>
    <flow id="V18" begin="0" end="10" period="193.0" from="-gneE47" to="-gneE59"/>
    <flow id="V19" begin="0" end="10" period="193.0" from="-gneE79" to="gneE79"/>
    <flow id="V20" begin="0" end="10" period="193.0" from="-gneE79" to="-gneE53"/>
    <flow id="V21" begin="0" end="10" period="193.0" from="gneE79" to="gneE47"/>
    <flow id="V22" begin="0" end="10" period="193.0" from="gneE59" to="gneE68"/>
    <flow id="V23" begin="0" end="10" period="193.0" from="-gneE78" to="gneE48"/>
    <flow id="V24" begin="0" end="10" period="193.0" from="gneE49" to="-gneE49"/>
    <flow id="V25" begin="0" end="10" period="193.0" from="gneE69" to="gneE54"/>
    <flow id="V26" begin="0" end="10" period="193.0" from="-gneE66" to="gneE57"/>
    <flow id="V27" begin="0" end="10" period="193.0" from="gneE61" to="-gneE63"/>
    <flow id="V28" begin="0" end="10" period="193.0" from="-gneE69" to="-gneE46"/>
    <flow id="V29" begin="0" end="10" period="193.0" from="gneE47" to="gneE79"/>
    <flow id="V30" begin="0" end="10" period="193.0" from="-gneE50" to="gneE69"/>
    <flow id="V31" begin="0" end="10" period="193.0" from="-gneE53" to="gneE49"/>
    <flow id="V32" begin="0" end="10" period="193.0" from="gneE64" to="-gneE63"/>
    <flow id="V33" begin="0" end="10" period="193.0" from="gneE47" to="-gneE70"/>
    <flow id="V34" begin="0" end="10" period="193.0" from="gneE61" to="-gneE49"/>
    <flow id="V35" begin="0" end="10" period="193.0" from="gneE54" to="gneE61"/>
    <flow id="V36" begin="0" end="10" period="193.0" from="-gneE66" to="-gneE63"/>
    <flow id="V37" begin="0" end="10" period="193.0" from="gneE60" to="gneE71"/>
    <flow id="V38" begin="0" end="10" period="193.0" from="gneE67" to="-gneE70"/>
    <flow id="V39" begin="0" end="10" period="193.0" from="-gneE60" to="gneE83"/>
    <flow id="V40" begin="0" end="10" period="193.0" from="-gneE50" to="-gneE65"/>
    <flow id="V41" begin="0" end="10" period="193.0" from="-gneE57" to="gneE59"/>
    <flow id="V42" begin="0" end="10" period="193.0" from="gneE49" to="gneE59"/>
    <flow id="V43" begin="0" end="10" period="193.0" from="-gneE70" to="-gneE65"/>
    <flow id="V44" begin="0" end="10" period="193.0" from="gneE67" to="-gneE71"/>
    <flow id="V45" begin="0" end="10" period="193.0" from="gneE70" to="-gneE66"/>
    <flow id="V46" begin="0" end="10" period="193.0" from="-gneE70" to="gneE62"/>
    <flow id="V47" begin="0" end="10" period="193.0" from="-gneE54" to="-gneE63"/>
    <flow id="V48" begin="0" end="10" period="193.0" from="-gneE47" to="gneE78"/>
    <flow id="V49" begin="0" end="10" period="193.0" from="-gneE59" to="gneE69"/>
    <flow id="V50" begin="0" end="10" period="193.0" from="gneE52" to="-gneE49"/>
    <flow id="V51" begin="0" end="10" period="193.0" from="-gneE67" to="-gneE69"/>
    <flow id="V52" begin="0" end="10" period="193.0" from="gneE64" to="-gneE61"/>
    <flow id="V53" begin="0" end="10" period="193.0" from="-gneE48" to="-gneE66"/>
    <flow id="V54" begin="0" end="10" period="193.0" from="-gneE69" to="gneE67"/>
    <flow id="V55" begin="0" end="10" period="193.0" from="-gneE62" to="-gneE70"/>
    <flow id="V56" begin="0" end="10" period="193.0" from="-gneE54" to="-gneE53"/>
    <flow id="V57" begin="0" end="10" period="193.0" from="gneE59" to="gneE71"/>
    <flow id="V58" begin="0" end="10" period="193.0" from="-gneE59" to="gneE84"/>
    <flow id="V59" begin="0" end="10" period="193.0" from="-gneE49" to="gneE51"/>
    <flow id="V60" begin="0" end="10" period="193.0" from="-gneE64" to="gneE59"/>
    <flow id="V61" begin="0" end="10" period="193.0" from="-gneE69" to="gneE48"/>
    <flow id="V62" begin="0" end="10" period="193.0" from="gneE84" to="gneE68"/>
    <flow id="V63" begin="0" end="10" period="193.0" from="gneE83" to="-gneE57"/>
    <flow id="V64" begin="0" end="10" period="193.0" from="gneE78" to="gneE50"/>
    <flow id="V65" begin="0" end="10" period="193.0" from="-gneE51" to="-gneE60"/>
    <flow id="V66" begin="0" end="10" period="193.0" from="-gneE66" to="gneE84"/>
    <flow id="V67" begin="0" end="10" period="193.0" from="gneE63" to="-gneE65"/>
    <flow id="V68" begin="0" end="10" period="193.0" from="-gneE78" to="gneE50"/>
    <flow id="V69" begin="0" end="10" period="193.0" from="-gneE46" to="-gneE79"/>
    <flow id="V70" begin="0" end="10" period="193.0" from="-gneE68" to="gneE48"/>
    <flow id="V71" begin="0" end="10" period="193.0" from="gneE61" to="-gneE63"/>
    <flow id="V72" begin="0" end="10" period="193.0" from="gneE62" to="-gneE67"/>
    <flow id="V73" begin="0" end="10" period="193.0" from="-gneE60" to="gneE70"/>
    <flow id="V74" begin="0" end="10" period="193.0" from="gneE48" to="-gneE59"/>
    <flow id="V75" begin="0" end="10" period="193.0" from="-gneE46" to="-gneE68"/>
    <flow id="V76" begin="0" end="10" period="193.0" from="gneE69" to="gneE83"/>
    <flow id="V77" begin="0" end="10" period="193.0" from="-gneE50" to="gneE64"/>
    <flow id="V78" begin="0" end="10" period="193.0" from="-gneE59" to="-gneE60"/>
    <flow id="V79" begin="0" end="10" period="193.0" from="-gneE63" to="gneE61"/>
    <flow id="V80" begin="0" end="10" period="193.0" from="-gneE66" to="-gneE57"/>
    <flow id="V81" begin="0" end="10" period="193.0" from="gneE84" to="gneE62"/>
    <flow id="V82" begin="0" end="10" period="193.0" from="gneE71" to="-gneE46"/>
    <flow id="V83" begin="0" end="10" period="193.0" from="-gneE54" to="-gneE48"/>
    <flow id="V84" begin="0" end="10" period="193.0" from="-gneE47" to="-gneE57"/>
    <flow id="V85" begin="0" end="10" period="193.0" from="gneE83" to="gneE57"/>
    <flow id="V86" begin="0" end="10" period="193.0" from="gneE64" to="-gneE49"/>
    <flow id="V87" begin="0" end="10" period="193.0" from="-gneE60" to="-gneE69"/>
    <flow id="V88" begin="0" end="10" period="193.0" from="gneE78" to="gneE60"/>
    <flow id="V89" begin="0" end="10" period="193.0" from="gneE69" to="-gneE52"/>
    <flow id="V90" begin="0" end="10" period="193.0" from="gneE68" to="-gneE79"/>
    <flow id="V91" begin="0" end="10" period="193.0" from="gneE47" to="-gneE53"/>
    <flow id="V92" begin="0" end="10" period="193.0" from="gneE50" to="gneE71"/>
    <flow id="V93" begin="0" end="10" period="193.0" from="gneE65" to="-gneE47"/>
    <flow id="V94" begin="0" end="10" period="193.0" from="-gneE63" to="-gneE52"/>
    <flow id="V95" begin="0" end="10" period="193.0" from="gneE59" to="gneE54"/>
    <flow id="V96" begin="0" end="10" period="193.0" from="-gneE69" to="-gneE46"/>
    <flow id="V97" begin="0" end="10" period="193.0" from="gneE67" to="gneE51"/>
    <flow id="V98" begin="0" end="10" period="193.0" from="-gneE57" to="-gneE49"/>
    <flow id="V99" begin="0" end="10" period="193.0" from="-gneE63" to="gneE78"/>
</routes>
